
OS:Version,
  {ab2910ae-a8ed-4d39-9d74-985548133942}, !- Handle
  3.7.0;                                  !- Version Identifier

OS:WeatherFile,
  {fa598741-1884-4229-8926-9163365ae87f}, !- Handle
  SINGAPORE,                              !- City
  -,                                      !- State Province Region
  SGP,                                    !- Country
  IWEC Data,                              !- Data Source
  486980,                                 !- WMO Number
  1.37,                                   !- Latitude {deg}
  103.98,                                 !- Longitude {deg}
  8,                                      !- Time Zone {hr}
  16,                                     !- Elevation {m}
  /home/chenkianwee/kianwee_work/code_workspace/10.osmod_n_ifc/epw/SGP_Singapore.486980_IWEC/SGP_Singapore.486980_IWEC.epw, !- Url
  A1E22486,                               !- Checksum
  ,                                       !- Start Date Actual Year
  Sunday;                                 !- Start Day of Week

OS:Site,
  {eb243fca-faa4-49a2-99f3-3d73cb1be003}, !- Handle
  SINGAPORE_-_SGP,                        !- Name
  1.37,                                   !- Latitude {deg}
  103.98,                                 !- Longitude {deg}
  8,                                      !- Time Zone {hr}
  16,                                     !- Elevation {m}
  ;                                       !- Terrain

OS:Site:GroundTemperature:BuildingSurface,
  {7fe05fbd-9f9a-4523-b36f-73e2864b823f}, !- Handle
  27.55,                                  !- January Ground Temperature {C}
  28.03,                                  !- February Ground Temperature {C}
  28.32,                                  !- March Ground Temperature {C}
  28.42,                                  !- April Ground Temperature {C}
  28.26,                                  !- May Ground Temperature {C}
  27.88,                                  !- June Ground Temperature {C}
  27.4,                                   !- July Ground Temperature {C}
  26.92,                                  !- August Ground Temperature {C}
  26.59,                                  !- September Ground Temperature {C}
  26.51,                                  !- October Ground Temperature {C}
  26.68,                                  !- November Ground Temperature {C}
  27.05;                                  !- December Ground Temperature {C}

OS:Site:WaterMainsTemperature,
  {90cc8622-5a01-49bc-af9a-47c37523d217}, !- Handle
  Correlation,                            !- Calculation Method
  ,                                       !- Temperature Schedule Name
  27.4638926940639,                       !- Annual Average Outdoor Air Temperature {C}
  2.12050504824542;                       !- Maximum Difference In Monthly Average Outdoor Air Temperatures {deltaC}

OS:SizingPeriod:DesignDay,
  {31292a37-140d-4009-9fe1-9a4bffe71746}, !- Handle
  SINGAPORE Ann Clg .4% Condns DB=>MWB,   !- Name
  33.2,                                   !- Maximum Dry-Bulb Temperature {C}
  5.5,                                    !- Daily Dry-Bulb Temperature Range {deltaC}
  101133,                                 !- Barometric Pressure {Pa}
  4.1,                                    !- Wind Speed {m/s}
  30,                                     !- Wind Direction {deg}
  ,                                       !- Sky Clearness
  No,                                     !- Rain Indicator
  No,                                     !- Snow Indicator
  21,                                     !- Day of Month
  6,                                      !- Month
  SummerDesignDay,                        !- Day Type
  No,                                     !- Daylight Saving Time Indicator
  Wetbulb,                                !- Humidity Condition Type
  ,                                       !- Humidity Condition Day Schedule Name
  26.4,                                   !- Wetbulb or DewPoint at Maximum Dry-Bulb {C}
  ,                                       !- Humidity Ratio at Maximum Dry-Bulb {kgWater/kgDryAir}
  ,                                       !- Enthalpy at Maximum Dry-Bulb {J/kg}
  DefaultMultipliers,                     !- Dry-Bulb Temperature Range Modifier Type
  ,                                       !- Dry-Bulb Temperature Range Modifier Day Schedule Name
  ASHRAETau,                              !- Solar Model Indicator
  ,                                       !- Beam Solar Day Schedule Name
  ,                                       !- Diffuse Solar Day Schedule Name
  0.494,                                  !- ASHRAE Clear Sky Optical Depth for Beam Irradiance {dimensionless}
  2.03;                                   !- ASHRAE Clear Sky Optical Depth for Diffuse Irradiance {dimensionless}

OS:SizingPeriod:DesignDay,
  {907094ff-63fc-4c91-9efb-3a6cd731d8fd}, !- Handle
  SINGAPORE Ann Htg 99.6% Condns DB,      !- Name
  23,                                     !- Maximum Dry-Bulb Temperature {C}
  0,                                      !- Daily Dry-Bulb Temperature Range {deltaC}
  101133,                                 !- Barometric Pressure {Pa}
  2,                                      !- Wind Speed {m/s}
  320,                                    !- Wind Direction {deg}
  0,                                      !- Sky Clearness
  No,                                     !- Rain Indicator
  No,                                     !- Snow Indicator
  21,                                     !- Day of Month
  12,                                     !- Month
  WinterDesignDay,                        !- Day Type
  No,                                     !- Daylight Saving Time Indicator
  Wetbulb,                                !- Humidity Condition Type
  ,                                       !- Humidity Condition Day Schedule Name
  23,                                     !- Wetbulb or DewPoint at Maximum Dry-Bulb {C}
  ,                                       !- Humidity Ratio at Maximum Dry-Bulb {kgWater/kgDryAir}
  ,                                       !- Enthalpy at Maximum Dry-Bulb {J/kg}
  DefaultMultipliers,                     !- Dry-Bulb Temperature Range Modifier Type
  ,                                       !- Dry-Bulb Temperature Range Modifier Day Schedule Name
  ASHRAEClearSky;                         !- Solar Model Indicator

OS:BuildingStory,
  {350fa07d-71e0-464c-a6e8-688ec3f9f7ff}, !- Handle
  Mezzanine Level,                        !- Name
  ,                                       !- Nominal Z Coordinate {m}
  ,                                       !- Nominal Floor to Floor Height {m}
  ,                                       !- Default Construction Set Name
  ,                                       !- Default Schedule Set Name
  ;                                       !- Group Rendering Name

OS:Material:NoMass,
  {aa7111e5-e655-4042-8f86-3d33893ca867}, !- Handle
  Material No Mass 1,                     !- Name
  Rough,                                  !- Roughness
  0.36,                                   !- Thermal Resistance {m2-K/W}
  0.9,                                    !- Thermal Absorptance
  0.7,                                    !- Solar Absorptance
  0.7;                                    !- Visible Absorptance

OS:Material,
  {a807f307-c47e-41c3-9758-3bf4d011aa91}, !- Handle
  Material 1,                             !- Name
  Smooth,                                 !- Roughness
  0.009,                                  !- Thickness {m}
  0.58,                                   !- Conductivity {W/m-K}
  1900,                                   !- Density {kg/m3}
  1400;                                   !- Specific Heat {J/kg-K}

OS:Construction,
  {8aa593da-7189-4a7e-b01d-b0fd582ef600}, !- Handle
  wall_construction,                      !- Name
  ,                                       !- Surface Rendering Name
  {aa7111e5-e655-4042-8f86-3d33893ca867}, !- Layer 1
  {a807f307-c47e-41c3-9758-3bf4d011aa91}; !- Layer 2

OS:WindowMaterial:SimpleGlazingSystem,
  {d710d752-ffd3-43e5-8524-a4d3b4f3faf3}, !- Handle
  Window Material Simple Glazing System 1, !- Name
  1.4,                                    !- U-Factor {W/m2-K}
  0.62,                                   !- Solar Heat Gain Coefficient
  0.78;                                   !- Visible Transmittance

OS:Construction,
  {fb479a8d-270f-46c8-8a2f-b304be7d0a34}, !- Handle
  win_construction,                       !- Name
  ,                                       !- Surface Rendering Name
  {d710d752-ffd3-43e5-8524-a4d3b4f3faf3}; !- Layer 1

OS:ThermalZone,
  {d3017b96-1600-483e-bdd6-d9c433491dc5}, !- Handle
  Thermal Zone 1,                         !- Name
  ,                                       !- Multiplier
  ,                                       !- Ceiling Height {m}
  ,                                       !- Volume {m3}
  ,                                       !- Floor Area {m2}
  ,                                       !- Zone Inside Convection Algorithm
  ,                                       !- Zone Outside Convection Algorithm
  ,                                       !- Zone Conditioning Equipment List Name
  {cf54ed86-6b72-4e8a-8560-12c29186bf16}, !- Zone Air Inlet Port List
  {c6fc11fe-3b9f-4a2e-bd2e-088b92ea819f}, !- Zone Air Exhaust Port List
  {5aabe858-aeeb-4f94-b708-c56f6e3667eb}, !- Zone Air Node Name
  {56d91201-bd23-40af-bfbd-ad87cd7b7894}, !- Zone Return Air Port List
  ,                                       !- Primary Daylighting Control Name
  ,                                       !- Fraction of Zone Controlled by Primary Daylighting Control
  ,                                       !- Secondary Daylighting Control Name
  ,                                       !- Fraction of Zone Controlled by Secondary Daylighting Control
  ,                                       !- Illuminance Map Name
  ,                                       !- Group Rendering Name
  {8ebf2ff7-4893-4442-b076-cdbebc103226}, !- Thermostat Name
  No;                                     !- Use Ideal Air Loads

OS:Node,
  {a7c4060c-4515-420f-a2b1-5885535b60f1}, !- Handle
  Node 1,                                 !- Name
  {5aabe858-aeeb-4f94-b708-c56f6e3667eb}, !- Inlet Port
  ;                                       !- Outlet Port

OS:Connection,
  {5aabe858-aeeb-4f94-b708-c56f6e3667eb}, !- Handle
  {d3017b96-1600-483e-bdd6-d9c433491dc5}, !- Source Object
  11,                                     !- Outlet Port
  {a7c4060c-4515-420f-a2b1-5885535b60f1}, !- Target Object
  2;                                      !- Inlet Port

OS:PortList,
  {cf54ed86-6b72-4e8a-8560-12c29186bf16}, !- Handle
  {d3017b96-1600-483e-bdd6-d9c433491dc5}, !- HVAC Component
  {0d4b3774-90fe-424e-931c-d0daa42328d9}; !- Port 1

OS:PortList,
  {c6fc11fe-3b9f-4a2e-bd2e-088b92ea819f}, !- Handle
  {d3017b96-1600-483e-bdd6-d9c433491dc5}, !- HVAC Component
  {5cc6c11c-9e2e-4148-95ac-db5d839afcba}; !- Port 1

OS:PortList,
  {56d91201-bd23-40af-bfbd-ad87cd7b7894}, !- Handle
  {d3017b96-1600-483e-bdd6-d9c433491dc5}; !- HVAC Component

OS:Sizing:Zone,
  {839d0398-1147-4c62-8599-f5250f58f3f5}, !- Handle
  {d3017b96-1600-483e-bdd6-d9c433491dc5}, !- Zone or ZoneList Name
  SupplyAirTemperature,                   !- Zone Cooling Design Supply Air Temperature Input Method
  13.8888888888889,                       !- Zone Cooling Design Supply Air Temperature {C}
  11.11,                                  !- Zone Cooling Design Supply Air Temperature Difference {deltaC}
  SupplyAirTemperature,                   !- Zone Heating Design Supply Air Temperature Input Method
  50.0000000000001,                       !- Zone Heating Design Supply Air Temperature {C}
  11.11,                                  !- Zone Heating Design Supply Air Temperature Difference {deltaC}
  0.008,                                  !- Zone Cooling Design Supply Air Humidity Ratio {kg-H2O/kg-air}
  0.008,                                  !- Zone Heating Design Supply Air Humidity Ratio {kg-H2O/kg-air}
  ,                                       !- Zone Heating Sizing Factor
  ,                                       !- Zone Cooling Sizing Factor
  DesignDay,                              !- Cooling Design Air Flow Method
  ,                                       !- Cooling Design Air Flow Rate {m3/s}
  ,                                       !- Cooling Minimum Air Flow per Zone Floor Area {m3/s-m2}
  ,                                       !- Cooling Minimum Air Flow {m3/s}
  ,                                       !- Cooling Minimum Air Flow Fraction
  DesignDay,                              !- Heating Design Air Flow Method
  ,                                       !- Heating Design Air Flow Rate {m3/s}
  ,                                       !- Heating Maximum Air Flow per Zone Floor Area {m3/s-m2}
  ,                                       !- Heating Maximum Air Flow {m3/s}
  ,                                       !- Heating Maximum Air Flow Fraction
  No,                                     !- Account for Dedicated Outdoor Air System
  NeutralSupplyAir,                       !- Dedicated Outdoor Air System Control Strategy
  autosize,                               !- Dedicated Outdoor Air Low Setpoint Temperature for Design {C}
  autosize,                               !- Dedicated Outdoor Air High Setpoint Temperature for Design {C}
  Sensible Load Only No Latent Load,      !- Zone Load Sizing Method
  HumidityRatioDifference,                !- Zone Latent Cooling Design Supply Air Humidity Ratio Input Method
  ,                                       !- Zone Dehumidification Design Supply Air Humidity Ratio {kgWater/kgDryAir}
  0.005,                                  !- Zone Cooling Design Supply Air Humidity Ratio Difference {kgWater/kgDryAir}
  HumidityRatioDifference,                !- Zone Latent Heating Design Supply Air Humidity Ratio Input Method
  ,                                       !- Zone Humidification Design Supply Air Humidity Ratio {kgWater/kgDryAir}
  0.005;                                  !- Zone Humidification Design Supply Air Humidity Ratio Difference {kgWater/kgDryAir}

OS:ZoneHVAC:EquipmentList,
  {d00384a0-66c0-4220-a369-9bcec3f9f13a}, !- Handle
  Zone HVAC Equipment List 1,             !- Name
  {d3017b96-1600-483e-bdd6-d9c433491dc5}, !- Thermal Zone
  ,                                       !- Load Distribution Scheme
  {61dc3d4e-f6df-48b9-b5c8-4aefa5cb914a}, !- Zone Equipment 1
  1,                                      !- Zone Equipment Cooling Sequence 1
  1,                                      !- Zone Equipment Heating or No-Load Sequence 1
  ,                                       !- Zone Equipment Sequential Cooling Fraction Schedule Name 1
  ;                                       !- Zone Equipment Sequential Heating Fraction Schedule Name 1

OS:Space,
  {11535f14-d984-4b46-ba5c-d9fee58fa1d5}, !- Handle
  Space,                                  !- Name
  ,                                       !- Space Type Name
  ,                                       !- Default Construction Set Name
  ,                                       !- Default Schedule Set Name
  ,                                       !- Direction of Relative North {deg}
  ,                                       !- X Origin {m}
  ,                                       !- Y Origin {m}
  ,                                       !- Z Origin {m}
  {350fa07d-71e0-464c-a6e8-688ec3f9f7ff}, !- Building Story Name
  {d3017b96-1600-483e-bdd6-d9c433491dc5}, !- Thermal Zone Name
  ,                                       !- Part of Total Floor Area
  {23c78ab7-f0cb-4bfe-8198-ca23dc76633d}, !- Design Specification Outdoor Air Object Name
  ,                                       !- Building Unit Name
  ,                                       !- Volume {m3}
  ,                                       !- Ceiling Height {m}
  Autocalculate;                          !- Floor Area {m2}

OS:Surface,
  {1c1d365a-6671-44a8-a097-835f395119ee}, !- Handle
  Surface 1,                              !- Name
  Wall,                                   !- Surface Type
  {8aa593da-7189-4a7e-b01d-b0fd582ef600}, !- Construction Name
  {11535f14-d984-4b46-ba5c-d9fee58fa1d5}, !- Space Name
  Outdoors,                               !- Outside Boundary Condition
  ,                                       !- Outside Boundary Condition Object
  SunExposed,                             !- Sun Exposure
  WindExposed,                            !- Wind Exposure
  ,                                       !- View Factor to Ground
  ,                                       !- Number of Vertices
  0.2, 2.8, 3,                            !- X,Y,Z Vertex 1 {m}
  0.2, 2.8, 0,                            !- X,Y,Z Vertex 2 {m}
  0.2, 0.2, 0,                            !- X,Y,Z Vertex 3 {m}
  0.2, 0.2, 3;                            !- X,Y,Z Vertex 4 {m}

OS:Surface,
  {2bbb873b-e63c-495e-9a97-c2f9f0afa023}, !- Handle
  Surface 2,                              !- Name
  Wall,                                   !- Surface Type
  {8aa593da-7189-4a7e-b01d-b0fd582ef600}, !- Construction Name
  {11535f14-d984-4b46-ba5c-d9fee58fa1d5}, !- Space Name
  Outdoors,                               !- Outside Boundary Condition
  ,                                       !- Outside Boundary Condition Object
  SunExposed,                             !- Sun Exposure
  WindExposed,                            !- Wind Exposure
  ,                                       !- View Factor to Ground
  ,                                       !- Number of Vertices
  0.2, 0.2, 3,                            !- X,Y,Z Vertex 1 {m}
  0.2, 0.2, 0,                            !- X,Y,Z Vertex 2 {m}
  3.8, 0.2, 0,                            !- X,Y,Z Vertex 3 {m}
  3.8, 0.2, 3;                            !- X,Y,Z Vertex 4 {m}

OS:SubSurface,
  {f5ee7db6-39d1-49a4-bb81-95e6619af7ec}, !- Handle
  Sub Surface 1,                          !- Name
  FixedWindow,                            !- Sub Surface Type
  {fb479a8d-270f-46c8-8a2f-b304be7d0a34}, !- Construction Name
  {2bbb873b-e63c-495e-9a97-c2f9f0afa023}, !- Surface Name
  ,                                       !- Outside Boundary Condition Object
  ,                                       !- View Factor to Ground
  ,                                       !- Frame and Divider Name
  ,                                       !- Multiplier
  ,                                       !- Number of Vertices
  0.6, 0.2, 1,                            !- X,Y,Z Vertex 1 {m}
  1.6, 0.2, 1,                            !- X,Y,Z Vertex 2 {m}
  1.6, 0.2, 2,                            !- X,Y,Z Vertex 3 {m}
  0.6, 0.2, 2;                            !- X,Y,Z Vertex 4 {m}

OS:Surface,
  {3ce26a31-1378-4b63-8068-1da42906dec8}, !- Handle
  Surface 3,                              !- Name
  Floor,                                  !- Surface Type
  {8aa593da-7189-4a7e-b01d-b0fd582ef600}, !- Construction Name
  {11535f14-d984-4b46-ba5c-d9fee58fa1d5}, !- Space Name
  Ground,                                 !- Outside Boundary Condition
  ,                                       !- Outside Boundary Condition Object
  NoSun,                                  !- Sun Exposure
  NoWind,                                 !- Wind Exposure
  ,                                       !- View Factor to Ground
  ,                                       !- Number of Vertices
  3.8, 0.2, 0,                            !- X,Y,Z Vertex 1 {m}
  0.2, 0.2, 0,                            !- X,Y,Z Vertex 2 {m}
  0.2, 2.8, 0,                            !- X,Y,Z Vertex 3 {m}
  3.8, 2.8, 0;                            !- X,Y,Z Vertex 4 {m}

OS:Surface,
  {42c491cf-177b-4485-b408-203f179123a4}, !- Handle
  Surface 4,                              !- Name
  RoofCeiling,                            !- Surface Type
  {8aa593da-7189-4a7e-b01d-b0fd582ef600}, !- Construction Name
  {11535f14-d984-4b46-ba5c-d9fee58fa1d5}, !- Space Name
  Outdoors,                               !- Outside Boundary Condition
  ,                                       !- Outside Boundary Condition Object
  SunExposed,                             !- Sun Exposure
  WindExposed,                            !- Wind Exposure
  ,                                       !- View Factor to Ground
  ,                                       !- Number of Vertices
  0.2, 0.2, 3,                            !- X,Y,Z Vertex 1 {m}
  3.8, 0.2, 3,                            !- X,Y,Z Vertex 2 {m}
  3.8, 2.8, 3,                            !- X,Y,Z Vertex 3 {m}
  0.2, 2.8, 3;                            !- X,Y,Z Vertex 4 {m}

OS:Surface,
  {ac0906e1-1b09-478f-8c62-e0dfdfc3aa68}, !- Handle
  Surface 5,                              !- Name
  Wall,                                   !- Surface Type
  {8aa593da-7189-4a7e-b01d-b0fd582ef600}, !- Construction Name
  {11535f14-d984-4b46-ba5c-d9fee58fa1d5}, !- Space Name
  Outdoors,                               !- Outside Boundary Condition
  ,                                       !- Outside Boundary Condition Object
  SunExposed,                             !- Sun Exposure
  WindExposed,                            !- Wind Exposure
  ,                                       !- View Factor to Ground
  ,                                       !- Number of Vertices
  3.8, 2.8, 3,                            !- X,Y,Z Vertex 1 {m}
  3.8, 2.8, 0,                            !- X,Y,Z Vertex 2 {m}
  0.2, 2.8, 0,                            !- X,Y,Z Vertex 3 {m}
  0.2, 2.8, 3;                            !- X,Y,Z Vertex 4 {m}

OS:Surface,
  {f07fa818-95de-4946-9798-210c2fb50292}, !- Handle
  Surface 6,                              !- Name
  Wall,                                   !- Surface Type
  {8aa593da-7189-4a7e-b01d-b0fd582ef600}, !- Construction Name
  {11535f14-d984-4b46-ba5c-d9fee58fa1d5}, !- Space Name
  Outdoors,                               !- Outside Boundary Condition
  ,                                       !- Outside Boundary Condition Object
  SunExposed,                             !- Sun Exposure
  WindExposed,                            !- Wind Exposure
  ,                                       !- View Factor to Ground
  ,                                       !- Number of Vertices
  3.8, 0.2, 3,                            !- X,Y,Z Vertex 1 {m}
  3.8, 0.2, 0,                            !- X,Y,Z Vertex 2 {m}
  3.8, 2.8, 0,                            !- X,Y,Z Vertex 3 {m}
  3.8, 2.8, 3;                            !- X,Y,Z Vertex 4 {m}

OS:ShadingSurfaceGroup,
  {6f54c86c-3d8a-478d-ac6a-65c81638b959}, !- Handle
  Shading Surface Group 1,                !- Name
  Building;                               !- Shading Surface Type

OS:ScheduleTypeLimits,
  {9d4ceb1b-ab0a-488d-ace8-bb99c9bbe6db}, !- Handle
  fractional,                             !- Name
  0,                                      !- Lower Limit Value
  1,                                      !- Upper Limit Value
  Continuous;                             !- Numeric Type

OS:ScheduleTypeLimits,
  {174f6303-1f5a-4b96-b4bf-6ad178eea27e}, !- Handle
  temperature,                            !- Name
  -60,                                    !- Lower Limit Value
  200,                                    !- Upper Limit Value
  Continuous,                             !- Numeric Type
  Temperature;                            !- Unit Type

OS:ScheduleTypeLimits,
  {05613949-dced-44bb-889e-3c4cb17ab800}, !- Handle
  activity,                               !- Name
  0,                                      !- Lower Limit Value
  ,                                       !- Upper Limit Value
  Continuous,                             !- Numeric Type
  ActivityLevel;                          !- Unit Type

OS:Schedule:Day,
  {126ef71d-c3cc-49dd-9a2d-c194b1b45ebb}, !- Handle
  weekday occupancy,                      !- Name
  {9d4ceb1b-ab0a-488d-ace8-bb99c9bbe6db}, !- Schedule Type Limits Name
  ,                                       !- Interpolate to Timestep
  9,                                      !- Hour 1
  0,                                      !- Minute 1
  0,                                      !- Value Until Time 1
  17,                                     !- Hour 2
  0,                                      !- Minute 2
  1,                                      !- Value Until Time 2
  24,                                     !- Hour 3
  0,                                      !- Minute 3
  0;                                      !- Value Until Time 3

OS:Schedule:Ruleset,
  {0722b878-d1ca-4959-8b0f-36cba2b9522b}, !- Handle
  occupancy schedule,                     !- Name
  {9d4ceb1b-ab0a-488d-ace8-bb99c9bbe6db}, !- Schedule Type Limits Name
  {fcbeaf46-d497-49cf-86f7-b5dd29b9bf61}; !- Default Day Schedule Name

OS:Schedule:Day,
  {fcbeaf46-d497-49cf-86f7-b5dd29b9bf61}, !- Handle
  Schedule Day 1,                         !- Name
  {9d4ceb1b-ab0a-488d-ace8-bb99c9bbe6db}, !- Schedule Type Limits Name
  ,                                       !- Interpolate to Timestep
  24,                                     !- Hour 1
  0,                                      !- Minute 1
  0;                                      !- Value Until Time 1

OS:Schedule:Rule,
  {fa382792-baed-4238-9335-67d23bbd0190}, !- Handle
  occupancy weekdays,                     !- Name
  {0722b878-d1ca-4959-8b0f-36cba2b9522b}, !- Schedule Ruleset Name
  0,                                      !- Rule Order
  {ae9f31e8-f311-438f-b81b-416abf582e52}, !- Day Schedule Name
  ,                                       !- Apply Sunday
  Yes,                                    !- Apply Monday
  Yes,                                    !- Apply Tuesday
  Yes,                                    !- Apply Wednesday
  Yes,                                    !- Apply Thursday
  Yes;                                    !- Apply Friday

OS:Schedule:Day,
  {ae9f31e8-f311-438f-b81b-416abf582e52}, !- Handle
  weekday occupancy 1,                    !- Name
  {9d4ceb1b-ab0a-488d-ace8-bb99c9bbe6db}, !- Schedule Type Limits Name
  ,                                       !- Interpolate to Timestep
  9,                                      !- Hour 1
  0,                                      !- Minute 1
  0,                                      !- Value Until Time 1
  17,                                     !- Hour 2
  0,                                      !- Minute 2
  1,                                      !- Value Until Time 2
  24,                                     !- Hour 3
  0,                                      !- Minute 3
  0;                                      !- Value Until Time 3

OS:Schedule:Day,
  {b90e196e-b6ec-4746-bae6-80f65276d0ba}, !- Handle
  weekday activity,                       !- Name
  {05613949-dced-44bb-889e-3c4cb17ab800}, !- Schedule Type Limits Name
  ,                                       !- Interpolate to Timestep
  24,                                     !- Hour 1
  0,                                      !- Minute 1
  70;                                     !- Value Until Time 1

OS:Schedule:Ruleset,
  {06be10a0-f315-4dec-ad64-ac2271a5ee81}, !- Handle
  activity schedule,                      !- Name
  {05613949-dced-44bb-889e-3c4cb17ab800}, !- Schedule Type Limits Name
  {3d231334-ff50-47ff-a028-9b2737dd0131}, !- Default Day Schedule Name
  {5fb1062e-aed0-4cbe-8da7-f80c101ae328}, !- Summer Design Day Schedule Name
  {7721c710-ddd4-45d7-840e-1fd2b7832007}, !- Winter Design Day Schedule Name
  {0092277e-5928-46e7-9a95-681a1e52164d}, !- Holiday Schedule Name
  {39fada8e-7b33-453f-8489-403a340dea02}, !- Custom Day 1 Schedule Name
  {08fb2a10-7fbf-43ad-8307-98ee8ff4d540}; !- Custom Day 2 Schedule Name

OS:Schedule:Day,
  {3d231334-ff50-47ff-a028-9b2737dd0131}, !- Handle
  Schedule Day 2,                         !- Name
  {05613949-dced-44bb-889e-3c4cb17ab800}, !- Schedule Type Limits Name
  ,                                       !- Interpolate to Timestep
  24,                                     !- Hour 1
  0,                                      !- Minute 1
  0;                                      !- Value Until Time 1

OS:Schedule:Day,
  {5fb1062e-aed0-4cbe-8da7-f80c101ae328}, !- Handle
  weekday activity 1,                     !- Name
  {05613949-dced-44bb-889e-3c4cb17ab800}, !- Schedule Type Limits Name
  ,                                       !- Interpolate to Timestep
  24,                                     !- Hour 1
  0,                                      !- Minute 1
  70;                                     !- Value Until Time 1

OS:Schedule:Day,
  {7721c710-ddd4-45d7-840e-1fd2b7832007}, !- Handle
  weekday activity 2,                     !- Name
  {05613949-dced-44bb-889e-3c4cb17ab800}, !- Schedule Type Limits Name
  ,                                       !- Interpolate to Timestep
  24,                                     !- Hour 1
  0,                                      !- Minute 1
  70;                                     !- Value Until Time 1

OS:Schedule:Day,
  {0092277e-5928-46e7-9a95-681a1e52164d}, !- Handle
  weekday activity 3,                     !- Name
  {05613949-dced-44bb-889e-3c4cb17ab800}, !- Schedule Type Limits Name
  ,                                       !- Interpolate to Timestep
  24,                                     !- Hour 1
  0,                                      !- Minute 1
  70;                                     !- Value Until Time 1

OS:Schedule:Day,
  {39fada8e-7b33-453f-8489-403a340dea02}, !- Handle
  weekday activity 4,                     !- Name
  {05613949-dced-44bb-889e-3c4cb17ab800}, !- Schedule Type Limits Name
  ,                                       !- Interpolate to Timestep
  24,                                     !- Hour 1
  0,                                      !- Minute 1
  70;                                     !- Value Until Time 1

OS:Schedule:Day,