
OS:Version,
  {05cb9901-ceb0-491f-83f6-cd828bb6a2f9}, !- Handle
  3.7.0;                                  !- Version Identifier

OS:Site,
  {6f06a724-a87e-4b3b-ab06-9af4f0d0ec39}, !- Handle
  Miami Intl Ap_FL_USA Design_Conditions, !- Name
  25.82,                                  !- Latitude {deg}
  -80.3,                                  !- Longitude {deg}
  -5,                                     !- Time Zone {hr}
  11,                                     !- Elevation {m}
  City;                                   !- Terrain

OS:SimulationControl,
  {01c3c5e9-ed57-4b13-ad2e-0c39d7259a71}, !- Handle
  Yes,                                    !- Do Zone Sizing Calculation
  Yes,                                    !- Do System Sizing Calculation
  Yes,                                    !- Do Plant Sizing Calculation
  No,                                     !- Run Simulation for Sizing Periods
  Yes,                                    !- Run Simulation for Weather File Run Periods
  0.04,                                   !- Loads Convergence Tolerance Value {W}
  0.2,                                    !- Temperature Convergence Tolerance Value {deltaC}
  FullInteriorAndExterior,                !- Solar Distribution
  25,                                     !- Maximum Number of Warmup Days
  6,                                      !- Minimum Number of Warmup Days
  No,                                     !- Do HVAC Sizing Simulation for Sizing Periods
  1;                                      !- Maximum Number of HVAC Sizing Simulation Passes

OS:Schedule:Compact,
  {186f2417-d45a-4736-8b31-78847c7940bd}, !- Handle
  PV_SCH,                                 !- Name
  {0aeb367a-4dba-46ee-acc2-a075d83467f1}, !- Schedule Type Limits Name
  Through: 12/31,                         !- Field 1
  For: AllDays,                           !- Field 2
  Until: 24:00,                           !- Field 3
  1;                                      !- Field 4

OS:ScheduleTypeLimits,
  {0aeb367a-4dba-46ee-acc2-a075d83467f1}, !- Handle
  Fraction,                               !- Name
  0,                                      !- Lower Limit Value
  1,                                      !- Upper Limit Value
  CONTINUOUS;                             !- Numeric Type

OS:Building,
  {a3720c7a-85d1-4832-817b-bc79da56f72f}, !- Handle
  OfficeSmall,                            !- Name
  ,                                       !- Building Sector Type
  0,                                      !- North Axis {deg}
  ,                                       !- Nominal Floor to Floor Height {m}
  ,                                       !- Space Type Name
  ,                                       !- Default Construction Set Name
  ;                                       !- Default Schedule Set Name

OS:ShadowCalculation,
  {a0bd9da8-e854-45fd-b1fc-d6670ec174fe}, !- Handle
  PolygonClipping,                        !- Shading Calculation Method
  Periodic,                               !- Shading Calculation Update Frequency Method
  30,                                     !- Shading Calculation Update Frequency
  15000,                                  !- Maximum Figures in Shadow Overlap Calculations
  ,                                       !- Polygon Clipping Algorithm
  512,                                    !- Pixel Counting Resolution
  ,                                       !- Sky Diffuse Modeling Algorithm
  No,                                     !- Output External Shading Calculation Results
  No,                                     !- Disable Self-Shading Within Shading Zone Groups
  No;                                     !- Disable Self-Shading From Shading Zone Groups to Other Zones

OS:HeatBalanceAlgorithm,
  {f529e622-80fb-4a6b-b275-64e330b7a5e5}, !- Handle
  ConductionTransferFunction,             !- Algorithm
  200;                                    !- Surface Temperature Upper Limit {C}

OS:Timestep,
  {54a4385f-4fa3-4255-9a93-71de36d1501b}, !- Handle
  6;                                      !- Number of Timesteps per Hour

OS:ConvergenceLimits,
  {6931c8be-e9e6-4e73-846c-2804fdbac709}, !- Handle
  1,                                      !- Minimum System Timestep {minutes}
  20;                                     !- Maximum HVAC Iterations

OS:RunPeriod,
  {2e0fc555-c0b9-49b2-a6b1-d7b8435de59d}, !- Handle
  RUNPERIOD 1,                            !- Name
  1,                                      !- Begin Month
  1,                                      !- Begin Day of Month
  12,                                     !- End Month
  31,                                     !- End Day of Month
  No,                                     !- Use Weather File Holidays and Special Days
  No,                                     !- Use Weather File Daylight Saving Period
  No,                                     !- Apply Weekend Holiday Rule
  Yes,                                    !- Use Weather File Rain Indicators
  Yes,                                    !- Use Weather File Snow Indicators
  ;                                       !- Number of Times Runperiod to be Repeated

OS:YearDescription,
  {0f28504f-0378-4f69-b2e2-40d34bb51dc3}, !- Handle
  ,                                       !- Calendar Year
  Sunday;                                 !- Day of Week for Start Day

OS:RunPeriodControl:SpecialDays,
  {0f75e43a-64dc-4cd3-8ebf-11df36ed0344}, !- Handle
  New Years Day,                          !- Name
  January 1,                              !- Start Date
  1,                                      !- Duration {days}
  Holiday;                                !- Special Day Type

OS:RunPeriodControl:SpecialDays,
  {2db3bca9-f228-4346-9498-fcc668c61aed}, !- Handle
  Veterans Day,                           !- Name
  November 11,                            !- Start Date
  1,                                      !- Duration {days}
  Holiday;                                !- Special Day Type

OS:RunPeriodControl:SpecialDays,
  {226e6376-e8a9-4fa3-8d36-ec1204e9e1ef}, !- Handle
  Christmas,                              !- Name
  December 25,                            !- Start Date
  1,                                      !- Duration {days}
  Holiday;                                !- Special Day Type

OS:RunPeriodControl:SpecialDays,
  {290086a0-b195-4717-8f53-349bc57cb84a}, !- Handle
  Independence Day,                       !- Name
  July 4,                                 !- Start Date
  1,                                      !- Duration {days}
  Holiday;                                !- Special Day Type

OS:RunPeriodControl:SpecialDays,
  {e5b173d2-734e-4dc4-8172-92ca17e7233c}, !- Handle
  MLK Day,                                !- Name
  3rd Monday in January,                  !- Start Date
  1,                                      !- Duration {days}
  Holiday;                                !- Special Day Type

OS:RunPeriodControl:SpecialDays,
  {1a9f5ba9-40f2-4756-8df9-5b3881376e04}, !- Handle
  Presidents Day,                         !- Name
  3rd Monday in February,                 !- Start Date
  1,                                      !- Duration {days}
  Holiday;                                !- Special Day Type

OS:RunPeriodControl:SpecialDays,
  {add05671-b6ff-4008-bf55-c1871fb2d5c8}, !- Handle
  Memorial Day,                           !- Name
  Last Monday in May,                     !- Start Date
  1,                                      !- Duration {days}
  Holiday;                                !- Special Day Type

OS:RunPeriodControl:SpecialDays,
  {e553e47e-37bb-4007-bede-52bbb9366681}, !- Handle
  Labor Day,                              !- Name
  1st Monday in September,                !- Start Date
  1,                                      !- Duration {days}
  Holiday;                                !- Special Day Type

OS:RunPeriodControl:SpecialDays,
  {ea509420-3cd1-4f45-819d-39b374d9acf7}, !- Handle
  Columbus Day,                           !- Name
  2nd Monday in October,                  !- Start Date
  1,                                      !- Duration {days}
  Holiday;                                !- Special Day Type

OS:RunPeriodControl:SpecialDays,
  {b5132ad0-d0c1-44e6-926f-fc023232467c}, !- Handle
  Thanksgiving,                           !- Name
  4th Thursday in November,               !- Start Date
  1,                                      !- Duration {days}
  Holiday;                                !- Special Day Type

OS:RunPeriodControl:DaylightSavingTime,
  {a44dff02-b5c8-44d4-9d0d-d0914e2bfce2}, !- Handle
  2nd Sunday in March,                    !- Start Date
  1st Sunday in November;                 !- End Date

OS:SizingPeriod:DesignDay,
  {50dfbc6e-0164-46e0-be4f-33494403dec7}, !- Handle
  Miami Intl Ap Ann Htg 99.6% Condns DB,  !- Name
  8.7,                                    !- Maximum Dry-Bulb Temperature {C}
  0,                                      !- Daily Dry-Bulb Temperature Range {deltaC}
  101193,                                 !- Barometric Pressure {Pa}
  3.8,                                    !- Wind Speed {m/s}
  340,                                    !- Wind Direction {deg}
  0,                                      !- Sky Clearness
  No,                                     !- Rain Indicator
  No,                                     !- Snow Indicator
  21,                                     !- Day of Month
  1,                                      !- Month
  WinterDesignDay,                        !- Day Type
  No,                                     !- Daylight Saving Time Indicator
  Wetbulb,                                !- Humidity Condition Type
  ,                                       !- Humidity Condition Day Schedule Name
  8.7,                                    !- Wetbulb or DewPoint at Maximum Dry-Bulb {C}
  ,                                       !- Humidity Ratio at Maximum Dry-Bulb {kgWater/kgDryAir}
  ,                                       !- Enthalpy at Maximum Dry-Bulb {J/kg}
  DefaultMultipliers,                     !- Dry-Bulb Temperature Range Modifier Type
  ,                                       !- Dry-Bulb Temperature Range Modifier Day Schedule Name
  ASHRAEClearSky;                         !- Solar Model Indicator

OS:SizingPeriod:DesignDay,
  {876e7959-96bc-4e4f-90c8-fe340f8e60e8}, !- Handle
  Miami Intl Ap Ann Clg .4% Condns DB=>MWB, !- Name
  33.2,                                   !- Maximum Dry-Bulb Temperature {C}
  6.7,                                    !- Daily Dry-Bulb Temperature Range {deltaC}
  101193,                                 !- Barometric Pressure {Pa}
  4.5,                                    !- Wind Speed {m/s}
  140,                                    !- Wind Direction {deg}
  ,                                       !- Sky Clearness
  No,                                     !- Rain Indicator
  No,                                     !- Snow Indicator
  21,                                     !- Day of Month
  7,                                      !- Month
  SummerDesignDay,                        !- Day Type
  No,                                     !- Daylight Saving Time Indicator
  Wetbulb,                                !- Humidity Condition Type
  ,                                       !- Humidity Condition Day Schedule Name
  25.3,                                   !- Wetbulb or DewPoint at Maximum Dry-Bulb {C}
  ,                                       !- Humidity Ratio at Maximum Dry-Bulb {kgWater/kgDryAir}
  ,                                       !- Enthalpy at Maximum Dry-Bulb {J/kg}
  DefaultMultipliers,                     !- Dry-Bulb Temperature Range Modifier Type
  ,                                       !- Dry-Bulb Temperature Range Modifier Day Schedule Name
  ASHRAETau,                              !- Solar Model Indicator
  ,                                       !- Beam Solar Day Schedule Name
  ,                                       !- Diffuse Solar Day Schedule Name
  0.528,                                  !- ASHRAE Clear Sky Optical Depth for Beam Irradiance {dimensionless}
  1.905;                                  !- ASHRAE Clear Sky Optical Depth for Diffuse Irradiance {dimensionless}

OS:Material:NoMass,
  {dcb67ecb-e59d-486c-8a08-c07fad17a423}, !- Handle
  Opaque Door panel_con,                  !- Name
  MediumRough,                            !- Roughness
  0.475973498005059,                      !- Thermal Resistance {m2-K/W}
  0.9,                                    !- Thermal Absorptance
  0.7,                                    !- Solar Absorptance
  0.7;                                    !- Visible Absorptance

OS:Construction,
  {76fc2ec5-a3fa-4d3d-b667-919b262caaf6}, !- Handle
  Swinging Door_con,                      !- Name
  ,                                       !- Surface Rendering Name
  {dcb67ecb-e59d-486c-8a08-c07fad17a423}; !- Layer 1

OS:ScheduleTypeLimits,
  {98ff5cd5-de9d-49b2-808d-3dce4f14d411}, !- Handle
  Schedule Type Limits 1;                 !- Name

OS:ScheduleTypeLimits,
  {040c19f0-f131-4798-a089-d3dc89c74806}, !- Handle
  Temperature,                            !- Name
  -60,                                    !- Lower Limit Value
  200,                                    !- Upper Limit Value
  CONTINUOUS,                             !- Numeric Type
  Temperature;                            !- Unit Type

OS:ScheduleTypeLimits,
  {c75e8a50-8b3f-4c93-920d-3d91fbc83caa}, !- Handle
  On/Off,                                 !- Name
  0,                                      !- Lower Limit Value
  1,                                      !- Upper Limit Value
  DISCRETE,                               !- Numeric Type
  Availability;                           !- Unit Type

OS:ScheduleTypeLimits,
  {9aea7628-b6df-4ee3-bc28-7661c122ff3c}, !- Handle
  Control Type,                           !- Name
  0,                                      !- Lower Limit Value
  4,                                      !- Upper Limit Value
  DISCRETE,                               !- Numeric Type
  ControlMode;                            !- Unit Type

OS:ScheduleTypeLimits,
  {5a9531a3-7832-46df-b073-c884acdcc696}, !- Handle
  Humidity,                               !- Name
  10,                                     !- Lower Limit Value
  90,                                     !- Upper Limit Value
  CONTINUOUS;                             !- Numeric Type

OS:ScheduleTypeLimits,
  {c96fd722-8ba6-4ed0-85b5-508e4bcb92ef}, !- Handle
  Schedule Type Limits 2;                 !- Name

OS:Schedule:Compact,
  {40f5e4c9-9a67-4d64-b77a-4f197c1b3be8}, !- Handle
  ltg_sch_office,                         !- Name
  {0aeb367a-4dba-46ee-acc2-a075d83467f1}, !- Schedule Type Limits Name
  Through: 12/31,                         !- Field 1
  For: SummerDesignDay,                   !- Field 2
  Until: 24:00,                           !- Field 3
  1,                                      !- Field 4
  For: WinterDesignDay,                   !- Field 5
  Until: 24:00,                           !- Field 6
  0,                                      !- Field 7
  For: Weekdays,                          !- Field 8
  Until: 5:00,                            !- Field 9
  0.120934906,                            !- Field 10
  Until: 7:00,                            !- Field 11
  0.1545268315,                           !- Field 12
  Until: 8:00,                            !- Field 13
  0.2821781355,                           !- Field 14
  Until: 12:00,                           !- Field 15
  0.6046645945,                           !- Field 16
  Until: 13:00,                           !- Field 17
  0.5374807435,                           !- Field 18
  Until: 17:00,                           !- Field 19
  0.6046645945,                           !- Field 20
  Until: 18:00,                           !- Field 21
  0.4098294395,                           !- Field 22
  Until: 20:00,                           !- Field 23
  0.2821781355,                           !- Field 24
  Until: 22:00,                           !- Field 25
  0.2149942845,                           !- Field 26
  Until: 23:00,                           !- Field 27
  0.1545268315,                           !- Field 28
  Until: 24:00,                           !- Field 29
  0.120934906,                            !- Field 30
  For: Saturday,                          !- Field 31
  Until: 24:00,                           !- Field 32
  0.120934906,                            !- Field 33
  For: AllOtherDays,                      !- Field 34
  Until: 24:00,                           !- Field 35
  0.120934906;                            !- Field 36

OS:Schedule:Compact,
  {71c6287d-e4a0-40b0-815b-1b8d44464f2b}, !- Handle
  BLDG_EQUIP_SCH,                         !- Name
  {0aeb367a-4dba-46ee-acc2-a075d83467f1}, !- Schedule Type Limits Name
  Through: 12/31,                         !- Field 1
  For: WeekDays,                          !- Field 2
  Until: 6:00,                            !- Field 3
  0.4094775565,                           !- Field 4
  Until: 8:00,                            !- Field 5
  0.4797526335,                           !- Field 6
  Until: 12:00,                           !- Field 7
  0.959505267,                            !- Field 8
  Until: 13:00,                           !- Field 9
  0.90193495098,                          !- Field 10
  Until: 17:00,                           !- Field 11
  0.959505267,                            !- Field 12
  Until: 18:00,                           !- Field 13
  0.4797526335,                           !- Field 14
  Until: 23:00,                           !- Field 15
  0.1919010534,                           !- Field 16
  Until: 24:00,                           !- Field 17
  0.1637910226,                           !- Field 18
  For: Weekends,                          !- Field 19
  Until: 24:00,                           !- Field 20
  0.1637910226,                           !- Field 21
  For: Holiday,                           !- Field 22
  Until: 24:00,                           !- Field 23
  0.1637910226,                           !- Field 24
  For: WinterDesignDay,                   !- Field 25
  Until: 24:00,                           !- Field 26
  0.0,                                    !- Field 27
  For: SummerDesignDay,                   !- Field 28
  Until: 24:00,                           !- Field 29
  1.0,                                    !- Field 30
  For: CustomDay1,                        !- Field 31
  Until: 24:00,                           !- Field 32
  0.0,                                    !- Field 33
  For: CustomDay2,                        !- Field 34
  Until: 24:00,                           !- Field 35
  0.0;                                    !- Field 36

OS:Schedule:Compact,
  {a6e1cf5b-da51-4340-be16-09df008e93d0}, !- Handle
  BLDG_OCC_SCH,                           !- Name
  {0aeb367a-4dba-46ee-acc2-a075d83467f1}, !- Schedule Type Limits Name
  Through: 12/31,                         !- Field 1
  For: Weekdays,                          !- Field 2
  Until: 6:00,                            !- Field 3
  0.0,                                    !- Field 4
  Until: 7:00,                            !- Field 5
  0.11,                                   !- Field 6
  Until: 8:00,                            !- Field 7
  0.21,                                   !- Field 8
  Until: 12:00,                           !- Field 9
  1.0,                                    !- Field 10
  Until: 13:00,                           !- Field 11
  0.53,                                   !- Field 12
  Until: 17:00,                           !- Field 13
  1.0,                                    !- Field 14
  Until: 18:00,                           !- Field 15
  0.32,                                   !- Field 16
  Until: 22:00,                           !- Field 17
  0.11,                                   !- Field 18
  Until: 23:00,                           !- Field 19
  0.05,                                   !- Field 20
  Until: 24:00,                           !- Field 21
  0.0,                                    !- Field 22
  For: Weekends,                          !- Field 23
  Until: 24:00,                           !- Field 24
  0.0,                                    !- Field 25
  For: Holiday,                           !- Field 26
  Until: 24:00,                           !- Field 27
  0.0,                                    !- Field 28
  For: WinterDesignDay,                   !- Field 29
  Until: 24:00,                           !- Field 30
  0.0,                                    !- Field 31
  For: SummerDesignDay,                   !- Field 32
  Until: 24:00,                           !- Field 33
  1.0,                                    !- Field 34
  For: CustomDay1,                        !- Field 35
  Until: 24:00,                           !- Field 36
  0.0,                                    !- Field 37
  For: CustomDay2,                        !- Field 38
  Until: 24:00,                           !- Field 39
  0.0;                                    !- Field 40

OS:Schedule:Compact,
  {7250ede6-2d07-4cfd-9645-8d41d94a08ea}, !- Handle
  BLDG_OCC_SCH_w_SB,                      !- Name
  {0aeb367a-4dba-46ee-acc2-a075d83467f1}, !- Schedule Type Limits Name
  Through: 12/31,                         !- Field 1
  For: Weekdays,                          !- Field 2
  Until: 01:00,                           !- Field 3
  0,                                      !- Field 4
  Until: 02:00,                           !- Field 5
  0,                                      !- Field 6
  Until: 03:00,                           !- Field 7
  0,                                      !- Field 8
  Until: 04:00,                           !- Field 9
  0,                                      !- Field 10
  Until: 05:00,                           !- Field 11
  0,                                      !- Field 12
  Until: 06:00,                           !- Field 13
  0,                                      !- Field 14
  Until: 07:00,                           !- Field 15
  0.11,                                   !- Field 16
  Until: 08:00,                           !- Field 17
  0.21,                                   !- Field 18
  Until: 09:00,                           !- Field 19
  1,                                      !- Field 20
  Until: 10:00,                           !- Field 21
  1,                                      !- Field 22
  Until: 11:00,                           !- Field 23
  0,                                      !- Field 24
  Until: 12:00,                           !- Field 25
  1,                                      !- Field 26
  Until: 13:00,                           !- Field 27
  0,                                      !- Field 28
  Until: 14:00,                           !- Field 29
  1,                                      !- Field 30
  Until: 15:00,                           !- Field 31
  0,                                      !- Field 32
  Until: 16:00,                           !- Field 33
  1,                                      !- Field 34
  Until: 17:00,                           !- Field 35
  1,                                      !- Field 36
  Until: 18:00,                           !- Field 37
  0.32,                                   !- Field 38
  Until: 19:00,                           !- Field 39
  0.11,                                   !- Field 40
  Until: 20:00,                           !- Field 41
  0.11,                                   !- Field 42
  Until: 21:00,                           !- Field 43
  0.11,                                   !- Field 44
  Until: 22:00,                           !- Field 45
  0.11,                                   !- Field 46
  Until: 23:00,                           !- Field 47
  0.05,                                   !- Field 48
  Until: 24:00,                           !- Field 49
  0,                                      !- Field 50
  For: Weekends,                          !- Field 51
  Until: 01:00,                           !- Field 52
  0,                                      !- Field 53
  Until: 02:00,                           !- Field 54
  0,                                      !- Field 55
  Until: 03:00,                           !- Field 56
  0,                                      !- Field 57
  Until: 04:00,                           !- Field 58
  0,                                      !- Field 59
  Until: 05:00,                           !- Field 60
  0,                                      !- Field 61
  Until: 06:00,                           !- Field 62
  0,                                      !- Field 63
  Until: 07:00,                           !- Field 64
  0,                                      !- Field 65
  Until: 08:00,                           !- Field 66
  0,                                      !- Field 67
  Until: 09:00,                           !- Field 68
  0,                                      !- Field 69
  Until: 10:00,                           !- Field 70
  0,                                      !- Field 71
  Until: 11:00,                           !- Field 72
  0,                                      !- Field 73
  Until: 12:00,                           !- Field 74
  0,                                      !- Field 75
  Until: 13:00,                           !- Field 76
  0,                                      !- Field 77
  Until: 14:00,                           !- Field 78
  0,                                      !- Field 79
  Until: 15:00,                           !- Field 80
  0,                                      !- Field 81
  Until: 16:00,                           !- Field 82
  0,                                      !- Field 83
  Until: 17:00,                           !- Field 84
  0,                                      !- Field 85
  Until: 18:00,                           !- Field 86
  0,                                      !- Field 87
  Until: 19:00,                           !- Field 88
  0,                                      !- Field 89
  Until: 20:00,                           !- Field 90
  0,                                      !- Field 91
  Until: 21:00,                           !- Field 92
  0,                                      !- Field 93
  Until: 22:00,                           !- Field 94
  0,                                      !- Field 95
  Until: 23:00,                           !- Field 96
  0,                                      !- Field 97
  Until: 24:00,                           !- Field 98
  0,                                      !- Field 99
  For: Holiday,                           !- Field 100
  Until: 24:00,                           !- Field 101
  0.0,                                    !- Field 102
  For: WinterDesignDay,                   !- Field 103
  Until: 24:00,                           !- Field 104
  0.0,                                    !- Field 105
  For: SummerDesignDay,                   !- Field 106
  Until: 24:00,                           !- Field 107
  1.0,                                    !- Field 108
  For: CustomDay1,                        !- Field 109
  Until: 24:00,                           !- Field 110
  0.0,                                    !- Field 111
  For: CustomDay2,                        !- Field 112
  Until: 24:00,                           !- Field 113
  0.0;                                    !- Field 114

OS:Schedule:Compact,
  {7b33c53c-0355-48bd-aa69-fb52dda73916}, !- Handle
  BLDG_OCC_SCH_wo_SB,                     !- Name
  {0aeb367a-4dba-46ee-acc2-a075d83467f1}, !- Schedule Type Limits Name
  Through: 12/31,                         !- Field 1
  For: Weekdays,                          !- Field 2
  Until: 01:00,                           !- Field 3
  0,                                      !- Field 4
  Until: 02:00,                           !- Field 5
  0,                                      !- Field 6
  Until: 03:00,                           !- Field 7
  0,                                      !- Field 8
  Until: 04:00,                           !- Field 9
  0,                                      !- Field 10
  Until: 05:00,                           !- Field 11
  0,                                      !- Field 12
  Until: 06:00,                           !- Field 13
  0,                                      !- Field 14
  Until: 07:00,                           !- Field 15
  0.11,                                   !- Field 16
  Until: 08:00,                           !- Field 17
  0.21,                                   !- Field 18
  Until: 09:00,                           !- Field 19
  1,                                      !- Field 20
  Until: 10:00,                           !- Field 21
  1,                                      !- Field 22
  Until: 11:00,                           !- Field 23
  1,                                      !- Field 24
  Until: 12:00,                           !- Field 25
  1,                                      !- Field 26
  Until: 13:00,                           !- Field 27
  0.610394505402463,                      !- Field 28
  Until: 14:00,                           !- Field 29
  1,                                      !- Field 30
  Until: 15:00,                           !- Field 31
  1,                                      !- Field 32
  Until: 16:00,                           !- Field 33
  1,                                      !- Field 34
  Until: 17:00,                           !- Field 35
  1,                                      !- Field 36
  Until: 18:00,                           !- Field 37
  0.32,                                   !- Field 38
  Until: 19:00,                           !- Field 39
  0.11,                                   !- Field 40
  Until: 20:00,                           !- Field 41