
OS:Version,
  {0d45bf93-91de-457f-ba2e-82a1cfc876f0}, !- Handle
  3.7.0;                                  !- Version Identifier

OS:Site,
  {6d5ed42a-35d0-48e7-a232-2d96c92eacb5}, !- Handle
  Miami Intl Ap_FL_USA Design_Conditions, !- Name
  25.82,                                  !- Latitude {deg}
  -80.3,                                  !- Longitude {deg}
  -5,                                     !- Time Zone {hr}
  11,                                     !- Elevation {m}
  City;                                   !- Terrain

OS:SimulationControl,
  {8f433a49-fc0d-404c-9d51-2954ec3a1fae}, !- Handle
  Yes,                                    !- Do Zone Sizing Calculation
  Yes,                                    !- Do System Sizing Calculation
  Yes,                                    !- Do Plant Sizing Calculation
  No,                                     !- Run Simulation for Sizing Periods
  Yes,                                    !- Run Simulation for Weather File Run Periods
  0.04,                                   !- Loads Convergence Tolerance Value {W}
  0.2,                                    !- Temperature Convergence Tolerance Value {deltaC}
  FullInteriorAndExterior,                !- Solar Distribution
  25,                                     !- Maximum Number of Warmup Days
  6,                                      !- Minimum Number of Warmup Days
  No,                                     !- Do HVAC Sizing Simulation for Sizing Periods
  1;                                      !- Maximum Number of HVAC Sizing Simulation Passes

OS:Schedule:Compact,
  {a1c4572a-0646-48f6-952f-cc73d373e359}, !- Handle
  PV_SCH,                                 !- Name
  {a3b4fc6e-f74f-4cc1-8fae-ec093e6e6e37}, !- Schedule Type Limits Name
  Through: 12/31,                         !- Field 1
  For: AllDays,                           !- Field 2
  Until: 24:00,                           !- Field 3
  1;                                      !- Field 4

OS:ScheduleTypeLimits,
  {a3b4fc6e-f74f-4cc1-8fae-ec093e6e6e37}, !- Handle
  Fraction,                               !- Name
  0,                                      !- Lower Limit Value
  1,                                      !- Upper Limit Value
  CONTINUOUS;                             !- Numeric Type

OS:Building,
  {77d3de5e-bdfe-4bff-af22-edad8543bd1b}, !- Handle
  OfficeSmall,                            !- Name
  ,                                       !- Building Sector Type
  0,                                      !- North Axis {deg}
  ,                                       !- Nominal Floor to Floor Height {m}
  ,                                       !- Space Type Name
  ,                                       !- Default Construction Set Name
  ;                                       !- Default Schedule Set Name

OS:ShadowCalculation,
  {721596b3-42b1-45a9-8a20-f58a484a8f92}, !- Handle
  PolygonClipping,                        !- Shading Calculation Method
  Periodic,                               !- Shading Calculation Update Frequency Method
  30,                                     !- Shading Calculation Update Frequency
  15000,                                  !- Maximum Figures in Shadow Overlap Calculations
  ,                                       !- Polygon Clipping Algorithm
  512,                                    !- Pixel Counting Resolution
  ,                                       !- Sky Diffuse Modeling Algorithm
  No,                                     !- Output External Shading Calculation Results
  No,                                     !- Disable Self-Shading Within Shading Zone Groups
  No;                                     !- Disable Self-Shading From Shading Zone Groups to Other Zones

OS:HeatBalanceAlgorithm,
  {21c57fb7-a594-4faf-9edd-475806c02bbc}, !- Handle
  ConductionTransferFunction,             !- Algorithm
  200;                                    !- Surface Temperature Upper Limit {C}

OS:Timestep,
  {93f6412e-2279-471a-9d1c-68dd4313729a}, !- Handle
  6;                                      !- Number of Timesteps per Hour

OS:ConvergenceLimits,
  {6b660173-95d1-46c6-b8a7-47f73be1afcb}, !- Handle
  1,                                      !- Minimum System Timestep {minutes}
  20;                                     !- Maximum HVAC Iterations

OS:RunPeriod,
  {4fd4cb8e-6e1b-4d3c-90d2-34b8cd0ef594}, !- Handle
  RUNPERIOD 1,                            !- Name
  1,                                      !- Begin Month
  1,                                      !- Begin Day of Month
  12,                                     !- End Month
  31,                                     !- End Day of Month
  No,                                     !- Use Weather File Holidays and Special Days
  No,                                     !- Use Weather File Daylight Saving Period
  No,                                     !- Apply Weekend Holiday Rule
  Yes,                                    !- Use Weather File Rain Indicators
  Yes,                                    !- Use Weather File Snow Indicators
  ;                                       !- Number of Times Runperiod to be Repeated

OS:YearDescription,
  {305ab85b-eb4f-49ce-9c57-355392c73124}, !- Handle
  ,                                       !- Calendar Year
  Sunday;                                 !- Day of Week for Start Day

OS:RunPeriodControl:SpecialDays,
  {0ae29f9a-fb9e-4f03-8cce-da8ed4bda761}, !- Handle
  New Years Day,                          !- Name
  January 1,                              !- Start Date
  1,                                      !- Duration {days}
  Holiday;                                !- Special Day Type

OS:RunPeriodControl:SpecialDays,
  {b9701b07-6d94-43df-be00-9b113c7977f4}, !- Handle
  Veterans Day,                           !- Name
  November 11,                            !- Start Date
  1,                                      !- Duration {days}
  Holiday;                                !- Special Day Type

OS:RunPeriodControl:SpecialDays,
  {2a1e7a14-2929-4d45-94e7-4cdc93c2bf22}, !- Handle
  Christmas,                              !- Name
  December 25,                            !- Start Date
  1,                                      !- Duration {days}
  Holiday;                                !- Special Day Type

OS:RunPeriodControl:SpecialDays,
  {77606f95-03d4-4760-82e7-d3883fe24730}, !- Handle
  Independence Day,                       !- Name
  July 4,                                 !- Start Date
  1,                                      !- Duration {days}
  Holiday;                                !- Special Day Type

OS:RunPeriodControl:SpecialDays,
  {bf057b06-14f9-4b88-833a-526447e63199}, !- Handle
  MLK Day,                                !- Name
  3rd Monday in January,                  !- Start Date
  1,                                      !- Duration {days}
  Holiday;                                !- Special Day Type

OS:RunPeriodControl:SpecialDays,
  {2456a5d7-319f-4d8c-8e77-16ee377952f4}, !- Handle
  Presidents Day,                         !- Name
  3rd Monday in February,                 !- Start Date
  1,                                      !- Duration {days}
  Holiday;                                !- Special Day Type

OS:RunPeriodControl:SpecialDays,
  {23c0642a-c296-47be-a6be-7a04e4ed59d9}, !- Handle
  Memorial Day,                           !- Name
  Last Monday in May,                     !- Start Date
  1,                                      !- Duration {days}
  Holiday;                                !- Special Day Type

OS:RunPeriodControl:SpecialDays,
  {0de861c9-70d9-4212-9188-5f12f30672a6}, !- Handle
  Labor Day,                              !- Name
  1st Monday in September,                !- Start Date
  1,                                      !- Duration {days}
  Holiday;                                !- Special Day Type

OS:RunPeriodControl:SpecialDays,
  {c58457a0-a165-4a07-b467-4604ed6b4df5}, !- Handle
  Columbus Day,                           !- Name
  2nd Monday in October,                  !- Start Date
  1,                                      !- Duration {days}
  Holiday;                                !- Special Day Type

OS:RunPeriodControl:SpecialDays,
  {fddfaca0-2948-4b3d-9053-2fcf6eca2db1}, !- Handle
  Thanksgiving,                           !- Name
  4th Thursday in November,               !- Start Date
  1,                                      !- Duration {days}
  Holiday;                                !- Special Day Type

OS:RunPeriodControl:DaylightSavingTime,
  {e0816cf6-abf2-4b5c-9fe6-49b965709ed1}, !- Handle
  2nd Sunday in March,                    !- Start Date
  1st Sunday in November;                 !- End Date

OS:SizingPeriod:DesignDay,
  {56027eba-4f56-4e81-acde-a1aba6f881c2}, !- Handle
  Miami Intl Ap Ann Htg 99.6% Condns DB,  !- Name
  8.7,                                    !- Maximum Dry-Bulb Temperature {C}
  0,                                      !- Daily Dry-Bulb Temperature Range {deltaC}
  101193,                                 !- Barometric Pressure {Pa}
  3.8,                                    !- Wind Speed {m/s}
  340,                                    !- Wind Direction {deg}
  0,                                      !- Sky Clearness
  No,                                     !- Rain Indicator
  No,                                     !- Snow Indicator
  21,                                     !- Day of Month
  1,                                      !- Month
  WinterDesignDay,                        !- Day Type
  No,                                     !- Daylight Saving Time Indicator
  Wetbulb,                                !- Humidity Condition Type
  ,                                       !- Humidity Condition Day Schedule Name
  8.7,                                    !- Wetbulb or DewPoint at Maximum Dry-Bulb {C}
  ,                                       !- Humidity Ratio at Maximum Dry-Bulb {kgWater/kgDryAir}
  ,                                       !- Enthalpy at Maximum Dry-Bulb {J/kg}
  DefaultMultipliers,                     !- Dry-Bulb Temperature Range Modifier Type
  ,                                       !- Dry-Bulb Temperature Range Modifier Day Schedule Name
  ASHRAEClearSky;                         !- Solar Model Indicator

OS:SizingPeriod:DesignDay,
  {77f18a5a-fc90-40c8-b9b9-974f31e9deac}, !- Handle
  Miami Intl Ap Ann Clg .4% Condns DB=>MWB, !- Name
  33.2,                                   !- Maximum Dry-Bulb Temperature {C}
  6.7,                                    !- Daily Dry-Bulb Temperature Range {deltaC}
  101193,                                 !- Barometric Pressure {Pa}
  4.5,                                    !- Wind Speed {m/s}
  140,                                    !- Wind Direction {deg}
  ,                                       !- Sky Clearness
  No,                                     !- Rain Indicator
  No,                                     !- Snow Indicator
  21,                                     !- Day of Month
  7,                                      !- Month
  SummerDesignDay,                        !- Day Type
  No,                                     !- Daylight Saving Time Indicator
  Wetbulb,                                !- Humidity Condition Type
  ,                                       !- Humidity Condition Day Schedule Name
  25.3,                                   !- Wetbulb or DewPoint at Maximum Dry-Bulb {C}
  ,                                       !- Humidity Ratio at Maximum Dry-Bulb {kgWater/kgDryAir}
  ,                                       !- Enthalpy at Maximum Dry-Bulb {J/kg}
  DefaultMultipliers,                     !- Dry-Bulb Temperature Range Modifier Type
  ,                                       !- Dry-Bulb Temperature Range Modifier Day Schedule Name
  ASHRAETau,                              !- Solar Model Indicator
  ,                                       !- Beam Solar Day Schedule Name
  ,                                       !- Diffuse Solar Day Schedule Name
  0.528,                                  !- ASHRAE Clear Sky Optical Depth for Beam Irradiance {dimensionless}
  1.905;                                  !- ASHRAE Clear Sky Optical Depth for Diffuse Irradiance {dimensionless}

OS:Material:NoMass,
  {07f60c9a-166a-408f-b642-e93f70846391}, !- Handle
  Opaque Door panel_con,                  !- Name
  MediumRough,                            !- Roughness
  0.475973498005059,                      !- Thermal Resistance {m2-K/W}
  0.9,                                    !- Thermal Absorptance
  0.7,                                    !- Solar Absorptance
  0.7;                                    !- Visible Absorptance

OS:Construction,
  {42ceb9f3-c006-402b-a97a-8767b8fd9a2d}, !- Handle
  Swinging Door_con,                      !- Name
  ,                                       !- Surface Rendering Name
  {07f60c9a-166a-408f-b642-e93f70846391}; !- Layer 1

OS:ScheduleTypeLimits,
  {2cb40506-6ba9-4712-854e-6ed6cd7ba103}, !- Handle
  Schedule Type Limits 1;                 !- Name

OS:ScheduleTypeLimits,
  {3ae416a8-45c6-4e52-95ce-820b5fbf40e8}, !- Handle
  Temperature,                            !- Name
  -60,                                    !- Lower Limit Value
  200,                                    !- Upper Limit Value
  CONTINUOUS,                             !- Numeric Type
  Temperature;                            !- Unit Type

OS:People:Definition,
  {7a02cf1c-ca2d-473c-8504-eba15c304149}, !- Handle
  Perimeter_ZN_4 Definition,              !- Name
  Area/Person,                            !- Number of People Calculation Method
  ,                                       !- Number of People {people}
  ,                                       !- People per Space Floor Area {person/m2}
  18.580626,                              !- Space Floor Area per Person {m2/person}
  0.3,                                    !- Fraction Radiant
  ,                                       !- Sensible Heat Fraction
  ,                                       !- Carbon Dioxide Generation Rate {m3/s-W}
  No,                                     !- Enable ASHRAE 55 Comfort Warnings
  ZoneAveraged;                           !- Mean Radiant Temperature Calculation Type

OS:People,
  {c18d2951-0433-42cd-b2cd-7baa2a98a034}, !- Handle
  Perimeter_ZN_4,                         !- Name
  {7a02cf1c-ca2d-473c-8504-eba15c304149}, !- People Definition Name
  {78835685-7787-4cce-8ddc-e64871bbaee4}, !- Space or SpaceType Name
  {2d5fb39d-4c63-4672-96d1-efdd7663d395}, !- Number of People Schedule Name
  {75caafae-9b42-4935-93e2-a5a18da618ff}, !- Activity Level Schedule Name
  ,                                       !- Surface Name/Angle Factor List Name
  ,                                       !- Work Efficiency Schedule Name
  ,                                       !- Clothing Insulation Schedule Name
  ,                                       !- Air Velocity Schedule Name
  1;                                      !- Multiplier

OS:ThermalZone,
  {3d65ceef-d3b4-425d-b5df-ac7170d287a3}, !- Handle
  Perimeter_ZN_4,                         !- Name
  1,                                      !- Multiplier
  ,                                       !- Ceiling Height {m}
  ,                                       !- Volume {m3}
  ,                                       !- Floor Area {m2}
  ,                                       !- Zone Inside Convection Algorithm
  ,                                       !- Zone Outside Convection Algorithm
  ,                                       !- Zone Conditioning Equipment List Name
  {8fff796d-a01c-4b77-b535-4fa5089048f4}, !- Zone Air Inlet Port List
  {8d55e574-49e6-4eb6-bdd5-567310a454b9}, !- Zone Air Exhaust Port List
  {12bb3deb-9f11-49fa-81d1-e5e4dbcf4350}, !- Zone Air Node Name
  {5c185403-cbf2-4892-bbb4-384d128db807}, !- Zone Return Air Port List
  {a10c7d98-cf16-4d32-b46c-b820a75e52ea}, !- Primary Daylighting Control Name
  0.0302,                                 !- Fraction of Zone Controlled by Primary Daylighting Control
  {3726528e-7055-40d2-945f-e80969a4e36c}, !- Secondary Daylighting Control Name
  ,                                       !- Fraction of Zone Controlled by Secondary Daylighting Control
  ,                                       !- Illuminance Map Name
  ,                                       !- Group Rendering Name
  {4ae1ff26-18ff-48f0-a582-1eaf127e8fa8}, !- Thermostat Name
  No;                                     !- Use Ideal Air Loads

OS:Node,
  {cea8934c-13c2-4e53-8385-07398dd54c74}, !- Handle
  Node 1,                                 !- Name
  {12bb3deb-9f11-49fa-81d1-e5e4dbcf4350}, !- Inlet Port
  ;                                       !- Outlet Port

OS:Connection,
  {12bb3deb-9f11-49fa-81d1-e5e4dbcf4350}, !- Handle
  {3d65ceef-d3b4-425d-b5df-ac7170d287a3}, !- Source Object
  11,                                     !- Outlet Port
  {cea8934c-13c2-4e53-8385-07398dd54c74}, !- Target Object
  2;                                      !- Inlet Port

OS:PortList,
  {8fff796d-a01c-4b77-b535-4fa5089048f4}, !- Handle
  {3d65ceef-d3b4-425d-b5df-ac7170d287a3}; !- HVAC Component

OS:PortList,
  {8d55e574-49e6-4eb6-bdd5-567310a454b9}, !- Handle
  {3d65ceef-d3b4-425d-b5df-ac7170d287a3}; !- HVAC Component

OS:PortList,
  {5c185403-cbf2-4892-bbb4-384d128db807}, !- Handle
  {3d65ceef-d3b4-425d-b5df-ac7170d287a3}; !- HVAC Component

OS:Sizing:Zone,
  {79d39d31-506d-4e10-89b0-ac2caa0b0db8}, !- Handle
  {3d65ceef-d3b4-425d-b5df-ac7170d287a3}, !- Zone or ZoneList Name
  SupplyAirTemperature,                   !- Zone Cooling Design Supply Air Temperature Input Method
  12.8,                                   !- Zone Cooling Design Supply Air Temperature {C}
  11.11,                                  !- Zone Cooling Design Supply Air Temperature Difference {deltaC}
  SupplyAirTemperature,                   !- Zone Heating Design Supply Air Temperature Input Method
  40,                                     !- Zone Heating Design Supply Air Temperature {C}
  11.11,                                  !- Zone Heating Design Supply Air Temperature Difference {deltaC}
  0.0085,                                 !- Zone Cooling Design Supply Air Humidity Ratio {kg-H2O/kg-air}
  0.008,                                  !- Zone Heating Design Supply Air Humidity Ratio {kg-H2O/kg-air}
  ,                                       !- Zone Heating Sizing Factor
  ,                                       !- Zone Cooling Sizing Factor
  DesignDay,                              !- Cooling Design Air Flow Method
  0,                                      !- Cooling Design Air Flow Rate {m3/s}
  ,                                       !- Cooling Minimum Air Flow per Zone Floor Area {m3/s-m2}
  ,                                       !- Cooling Minimum Air Flow {m3/s}
  0,                                      !- Cooling Minimum Air Flow Fraction
  DesignDay,                              !- Heating Design Air Flow Method
  0,                                      !- Heating Design Air Flow Rate {m3/s}
  ,                                       !- Heating Maximum Air Flow per Zone Floor Area {m3/s-m2}
  ,                                       !- Heating Maximum Air Flow {m3/s}
  ,                                       !- Heating Maximum Air Flow Fraction
  No,                                     !- Account for Dedicated Outdoor Air System
  ,                                       !- Dedicated Outdoor Air System Control Strategy
  autosize,                               !- Dedicated Outdoor Air Low Setpoint Temperature for Design {C}
  autosize,                               !- Dedicated Outdoor Air High Setpoint Temperature for Design {C}
  Sensible Load Only No Latent Load,      !- Zone Load Sizing Method
  HumidityRatioDifference,                !- Zone Latent Cooling Design Supply Air Humidity Ratio Input Method
  ,                                       !- Zone Dehumidification Design Supply Air Humidity Ratio {kgWater/kgDryAir}
  0.005,                                  !- Zone Cooling Design Supply Air Humidity Ratio Difference {kgWater/kgDryAir}
  HumidityRatioDifference,                !- Zone Latent Heating Design Supply Air Humidity Ratio Input Method
  ,                                       !- Zone Humidification Design Supply Air Humidity Ratio {kgWater/kgDryAir}
  0.005;                                  !- Zone Humidification Design Supply Air Humidity Ratio Difference {kgWater/kgDryAir}

OS:ZoneHVAC:EquipmentList,
  {4fdacc1c-5b79-421d-8302-7a18b4762a02}, !- Handle
  Zone HVAC Equipment List 1,             !- Name
  {3d65ceef-d3b4-425d-b5df-ac7170d287a3}; !- Thermal Zone

OS:Space,
  {78835685-7787-4cce-8ddc-e64871bbaee4}, !- Handle
  Perimeter_ZN_4 Space,                   !- Name
  ,                                       !- Space Type Name
  ,                                       !- Default Construction Set Name
  ,                                       !- Default Schedule Set Name
  0,                                      !- Direction of Relative North {deg}
  0,                                      !- X Origin {m}
  0,                                      !- Y Origin {m}
  0,                                      !- Z Origin {m}
  ,                                       !- Building Story Name
  {3d65ceef-d3b4-425d-b5df-ac7170d287a3}, !- Thermal Zone Name
  Yes,                                    !- Part of Total Floor Area
  {e59f3339-6c49-44a8-87c6-10d3bca5e360}; !- Design Specification Outdoor Air Object Name

OS:ThermostatSetpoint:DualSetpoint,
  {4ae1ff26-18ff-48f0-a582-1eaf127e8fa8}, !- Handle
  Perimeter_ZN_4 Dual SP Control,         !- Name
  {57a03692-3063-4b5d-97de-898578136e66}, !- Heating Setpoint Temperature Schedule Name
  {f1a41991-830b-4ea8-89e0-570f50931513}; !- Cooling Setpoint Temperature Schedule Name

OS:Schedule:Compact,
  {57a03692-3063-4b5d-97de-898578136e66}, !- Handle
  HTGSETP_SCH_NO_OPTIMUM,                 !- Name
  {3ae416a8-45c6-4e52-95ce-820b5fbf40e8}, !- Schedule Type Limits Name
  Through: 12/31,                         !- Field 1
  For: WeekDays,                          !- Field 2
  Until: 6:00,                            !- Field 3
  15.56,                                  !- Field 4
  Until: 7:00,                            !- Field 5
  21.11,                                  !- Field 6
  Until: 19:00,                           !- Field 7
  21.11,                                  !- Field 8
  Until: 24:00,                           !- Field 9
  15.56,                                  !- Field 10
  For: Weekends,                          !- Field 11
  Until: 24:00,                           !- Field 12
  15.56,                                  !- Field 13
  For: Holiday,                           !- Field 14
  Until: 24:00,                           !- Field 15
  15.56,                                  !- Field 16
  For: WinterDesignDay,                   !- Field 17
  Until: 24:00,                           !- Field 18
  21.11,                                  !- Field 19
  For: SummerDesignDay,                   !- Field 20
  Until: 24:00,                           !- Field 21
  15.56,                                  !- Field 22
  For: CustomDay1,                        !- Field 23
  Until: 24:00,                           !- Field 24
  15.56,                                  !- Field 25
  For: CustomDay2,                        !- Field 26
  Until: 24:00,                           !- Field 27
  15.56;                                  !- Field 28

OS:Schedule:Compact,
  {f1a41991-830b-4ea8-89e0-570f50931513}, !- Handle
  CLGSETP_SCH_NO_OPTIMUM,                 !- Name
  {3ae416a8-45c6-4e52-95ce-820b5fbf40e8}, !- Schedule Type Limits Name
  Through: 12/31,                         !- Field 1
  For: WeekDays,                          !- Field 2
  Until: 6:00,                            !- Field 3
  29.44,                                  !- Field 4
  Until: 7:00,                            !- Field 5
  23.89,                                  !- Field 6
  Until: 18:00,                           !- Field 7
  23.89,                                  !- Field 8
  Until: 24:00,                           !- Field 9
  29.44,                                  !- Field 10
  For: Weekends,                          !- Field 11
  Until: 24:00,                           !- Field 12
  29.44,                                  !- Field 13
  For: Holiday,                           !- Field 14
  Until: 24:00,                           !- Field 15
  29.44,                                  !- Field 16
  For: WinterDesignDay,                   !- Field 17
  Until: 24:00,                           !- Field 18
  29.44,                                  !- Field 19
  For: SummerDesignDay,                   !- Field 20
  Until: 24:00,                           !- Field 21
  23.89,                                  !- Field 22
  For: CustomDay1,                        !- Field 23
  Until: 24:00,                           !- Field 24
  29.44,                                  !- Field 25
  For: CustomDay2,                        !- Field 26
  Until: 24:00,                           !- Field 27
  29.44;                                  !- Field 28

OS:Schedule:Compact,
  {2d5fb39d-4c63-4672-96d1-efdd7663d395}, !- Handle
  BLDG_OCC_SCH_wo_SB,                     !- Name
  {a3b4fc6e-f74f-4cc1-8fae-ec093e6e6e37}, !- Schedule Type Limits Name
  Through: 12/31,                         !- Field 1
  For: Weekdays,                          !- Field 2
  Until: 01:00,                           !- Field 3
  0,                                      !- Field 4
  Until: 02:00,                           !- Field 5
  0,                                      !- Field 6
  Until: 03:00,                           !- Field 7
  0,                                      !- Field 8
  Until: 04:00,                           !- Field 9
  0,                                      !- Field 10
  Until: 05:00,                           !- Field 11
  0,                                      !- Field 12
  Until: 06:00,                           !- Field 13
  0,                                      !- Field 14
  Until: 07:00,                           !- Field 15
  0.11,                                   !- Field 16
  Until: 08:00,                           !- Field 17
  0.21,                                   !- Field 18
  Until: 09:00,                           !- Field 19
  1,                                      !- Field 20
  Until: 10:00,                           !- Field 21
  1,                                      !- Field 22
  Until: 11:00,                           !- Field 23
  1,                                      !- Field 24
  Until: 12:00,                           !- Field 25
  1,                                      !- Field 26
  Until: 13:00,                           !- Field 27
  0.610394505402463,                      !- Field 28
  Until: 14:00,                           !- Field 29
  1,                                      !- Field 30
  Until: 15:00,                           !- Field 31
  1,                                      !- Field 32
  Until: 16:00,                           !- Field 33
  1,                                      !- Field 34
  Until: 17:00,                           !- Field 35
  1,                                      !- Field 36
  Until: 18:00,                           !- Field 37
  0.32,                                   !- Field 38
  Until: 19:00,                           !- Field 39
  0.11,                                   !- Field 40
  Until: 20:00,                           !- Field 41
  0.11,                                   !- Field 42
  Until: 21:00,                           !- Field 43
  0.11,                                   !- Field 44
  Until: 22:00,                           !- Field 45
  0.11,                                   !- Field 46
  Until: 23:00,                           !- Field 47
  0.05,                                   !- Field 48
  Until: 24:00,                           !- Field 49
  0,                                      !- Field 50
  For: Weekends,                          !- Field 51
  Until: 01:00,                           !- Field 52
  0,                                      !- Field 53
  Until: 02:00,                           !- Field 54
  0,                                      !- Field 55
  Until: 03:00,                           !- Field 56
  0,                                      !- Field 57
  Until: 04:00,                           !- Field 58
  0,                                      !- Field 59
  Until: 05:00,                           !- Field 60
  0,                                      !- Field 61
  Until: 06:00,                           !- Field 62
  0,                                      !- Field 63
  Until: 07:00,                           !- Field 64
  0,                                      !- Field 65
  Until: 08:00,                           !- Field 66
  0,                                      !- Field 67
  Until: 09:00,                           !- Field 68
  0,                                      !- Field 69
  Until: 10:00,                           !- Field 70
  0,                                      !- Field 71
  Until: 11:00,                           !- Field 72
  0,                                      !- Field 73
  Until: 12:00,                           !- Field 74
  0,                                      !- Field 75
  Until: 13:00,                           !- Field 76
  0,                                      !- Field 77
  Until: 14:00,                           !- Field 78
  0,                                      !- Field 79
  Until: 15:00,                           !- Field 80
  0,                                      !- Field 81
  Until: 16:00,                           !- Field 82
  0,                                      !- Field 83
  Until: 17:00,                           !- Field 84