
OS:Version,
  {46179bca-92e0-47ea-89c7-6d546c3a4d4f}, !- Handle
  3.7.0;                                  !- Version Identifier

OS:Site,
  {0568978e-8fcb-4d47-954e-6bccf9904752}, !- Handle
  Miami Intl Ap_FL_USA Design_Conditions, !- Name
  25.82,                                  !- Latitude {deg}
  -80.3,                                  !- Longitude {deg}
  -5,                                     !- Time Zone {hr}
  11,                                     !- Elevation {m}
  City;                                   !- Terrain

OS:SimulationControl,
  {e8bd5111-510f-4906-a537-3c2e7a27dafb}, !- Handle
  Yes,                                    !- Do Zone Sizing Calculation
  Yes,                                    !- Do System Sizing Calculation
  Yes,                                    !- Do Plant Sizing Calculation
  No,                                     !- Run Simulation for Sizing Periods
  Yes,                                    !- Run Simulation for Weather File Run Periods
  0.04,                                   !- Loads Convergence Tolerance Value {W}
  0.2,                                    !- Temperature Convergence Tolerance Value {deltaC}
  FullInteriorAndExterior,                !- Solar Distribution
  25,                                     !- Maximum Number of Warmup Days
  6,                                      !- Minimum Number of Warmup Days
  No,                                     !- Do HVAC Sizing Simulation for Sizing Periods
  1;                                      !- Maximum Number of HVAC Sizing Simulation Passes

OS:Building,
  {02eb2e25-9290-4e89-920f-c1dc46cae04a}, !- Handle
  OfficeMedium,                           !- Name
  ,                                       !- Building Sector Type
  0,                                      !- North Axis {deg}
  ,                                       !- Nominal Floor to Floor Height {m}
  ,                                       !- Space Type Name
  ,                                       !- Default Construction Set Name
  ;                                       !- Default Schedule Set Name

OS:Timestep,
  {2c2f4ee7-50a4-4fd4-9eb8-40d77a2235b8}, !- Handle
  6;                                      !- Number of Timesteps per Hour

OS:ConvergenceLimits,
  {efcf4c51-8cc2-4e1f-a466-d68b9198af47}, !- Handle
  1,                                      !- Minimum System Timestep {minutes}
  20;                                     !- Maximum HVAC Iterations

OS:HeatBalanceAlgorithm,
  {d426b0ff-7e62-4e93-a703-a80fc006fa9d}, !- Handle
  ConductionTransferFunction,             !- Algorithm
  200;                                    !- Surface Temperature Upper Limit {C}

OS:ShadowCalculation,
  {88a97f76-4004-4c5a-bd21-7647a456de18}, !- Handle
  PolygonClipping,                        !- Shading Calculation Method
  Periodic,                               !- Shading Calculation Update Frequency Method
  30,                                     !- Shading Calculation Update Frequency
  15000,                                  !- Maximum Figures in Shadow Overlap Calculations
  ,                                       !- Polygon Clipping Algorithm
  512,                                    !- Pixel Counting Resolution
  ,                                       !- Sky Diffuse Modeling Algorithm
  No,                                     !- Output External Shading Calculation Results
  No,                                     !- Disable Self-Shading Within Shading Zone Groups
  No;                                     !- Disable Self-Shading From Shading Zone Groups to Other Zones

OS:RunPeriod,
  {d2c97faf-788a-4153-8c5c-1c65db34d923}, !- Handle
  RUNPERIOD 1,                            !- Name
  1,                                      !- Begin Month
  1,                                      !- Begin Day of Month
  12,                                     !- End Month
  31,                                     !- End Day of Month
  No,                                     !- Use Weather File Holidays and Special Days
  No,                                     !- Use Weather File Daylight Saving Period
  No,                                     !- Apply Weekend Holiday Rule
  Yes,                                    !- Use Weather File Rain Indicators
  Yes,                                    !- Use Weather File Snow Indicators
  ;                                       !- Number of Times Runperiod to be Repeated

OS:YearDescription,
  {e519b9f3-798c-4939-aa6b-17616cb85eca}, !- Handle
  ,                                       !- Calendar Year
  Sunday;                                 !- Day of Week for Start Day

OS:RunPeriodControl:SpecialDays,
  {b10bfb53-be20-453b-a602-ace9f7ecafba}, !- Handle
  New Years Day,                          !- Name
  January 1,                              !- Start Date
  1,                                      !- Duration {days}
  Holiday;                                !- Special Day Type

OS:RunPeriodControl:SpecialDays,
  {693582dd-bc3c-4282-856f-e5236d792dd1}, !- Handle
  Veterans Day,                           !- Name
  November 11,                            !- Start Date
  1,                                      !- Duration {days}
  Holiday;                                !- Special Day Type

OS:RunPeriodControl:SpecialDays,
  {48037944-1f74-498d-9868-8d62a0a4e022}, !- Handle
  Christmas,                              !- Name
  December 25,                            !- Start Date
  1,                                      !- Duration {days}
  Holiday;                                !- Special Day Type

OS:RunPeriodControl:SpecialDays,
  {50550af6-a934-40de-8051-7af7ec2211bd}, !- Handle
  Independence Day,                       !- Name
  July 4,                                 !- Start Date
  1,                                      !- Duration {days}
  Holiday;                                !- Special Day Type

OS:RunPeriodControl:SpecialDays,
  {7a407125-c4df-4de4-ac6d-450a7f3c3cc9}, !- Handle
  MLK Day,                                !- Name
  3rd Monday in January,                  !- Start Date
  1,                                      !- Duration {days}
  Holiday;                                !- Special Day Type

OS:RunPeriodControl:SpecialDays,
  {0c55cf47-8994-483a-96ea-caac674f197a}, !- Handle
  Presidents Day,                         !- Name
  3rd Monday in February,                 !- Start Date
  1,                                      !- Duration {days}
  Holiday;                                !- Special Day Type

OS:RunPeriodControl:SpecialDays,
  {d4853cb0-0776-483a-8aa9-22ab2e33fc65}, !- Handle
  Memorial Day,                           !- Name
  Last Monday in May,                     !- Start Date
  1,                                      !- Duration {days}
  Holiday;                                !- Special Day Type

OS:RunPeriodControl:SpecialDays,
  {685dc63c-96f9-4ec1-a61b-3c5dd440bf55}, !- Handle
  Labor Day,                              !- Name
  1st Monday in September,                !- Start Date
  1,                                      !- Duration {days}
  Holiday;                                !- Special Day Type

OS:RunPeriodControl:SpecialDays,
  {249155e4-1d76-4952-b6de-369f892f7e74}, !- Handle
  Columbus Day,                           !- Name
  2nd Monday in October,                  !- Start Date
  1,                                      !- Duration {days}
  Holiday;                                !- Special Day Type

OS:RunPeriodControl:SpecialDays,
  {1998d66c-2bd9-4109-b0ab-aefea97cb4b5}, !- Handle
  Thanksgiving,                           !- Name
  4th Thursday in November,               !- Start Date
  1,                                      !- Duration {days}
  Holiday;                                !- Special Day Type

OS:RunPeriodControl:DaylightSavingTime,
  {495b7e36-c90f-46a9-8f52-5c9bd1e8b461}, !- Handle
  2nd Sunday in March,                    !- Start Date
  1st Sunday in November;                 !- End Date

OS:SizingPeriod:DesignDay,
  {90ba9581-08c8-4112-bace-878ffb59de58}, !- Handle
  Miami Intl Ap Ann Htg 99.6% Condns DB,  !- Name
  8.7,                                    !- Maximum Dry-Bulb Temperature {C}
  0,                                      !- Daily Dry-Bulb Temperature Range {deltaC}
  101193,                                 !- Barometric Pressure {Pa}
  3.8,                                    !- Wind Speed {m/s}
  340,                                    !- Wind Direction {deg}
  0,                                      !- Sky Clearness
  No,                                     !- Rain Indicator
  No,                                     !- Snow Indicator
  21,                                     !- Day of Month
  1,                                      !- Month
  WinterDesignDay,                        !- Day Type
  No,                                     !- Daylight Saving Time Indicator
  Wetbulb,                                !- Humidity Condition Type
  ,                                       !- Humidity Condition Day Schedule Name
  8.7,                                    !- Wetbulb or DewPoint at Maximum Dry-Bulb {C}
  ,                                       !- Humidity Ratio at Maximum Dry-Bulb {kgWater/kgDryAir}
  ,                                       !- Enthalpy at Maximum Dry-Bulb {J/kg}
  DefaultMultipliers,                     !- Dry-Bulb Temperature Range Modifier Type
  ,                                       !- Dry-Bulb Temperature Range Modifier Day Schedule Name
  ASHRAEClearSky;                         !- Solar Model Indicator

OS:SizingPeriod:DesignDay,
  {a515ba4a-059d-4b5b-9a0e-ed9413f5d0a6}, !- Handle
  Miami Intl Ap Ann Clg .4% Condns DB=>MWB, !- Name
  33.2,                                   !- Maximum Dry-Bulb Temperature {C}
  6.7,                                    !- Daily Dry-Bulb Temperature Range {deltaC}
  101193,                                 !- Barometric Pressure {Pa}
  4.5,                                    !- Wind Speed {m/s}
  140,                                    !- Wind Direction {deg}
  ,                                       !- Sky Clearness
  No,                                     !- Rain Indicator
  No,                                     !- Snow Indicator
  21,                                     !- Day of Month
  7,                                      !- Month
  SummerDesignDay,                        !- Day Type
  No,                                     !- Daylight Saving Time Indicator
  Wetbulb,                                !- Humidity Condition Type
  ,                                       !- Humidity Condition Day Schedule Name
  25.3,                                   !- Wetbulb or DewPoint at Maximum Dry-Bulb {C}
  ,                                       !- Humidity Ratio at Maximum Dry-Bulb {kgWater/kgDryAir}
  ,                                       !- Enthalpy at Maximum Dry-Bulb {J/kg}
  DefaultMultipliers,                     !- Dry-Bulb Temperature Range Modifier Type
  ,                                       !- Dry-Bulb Temperature Range Modifier Day Schedule Name
  ASHRAETau,                              !- Solar Model Indicator
  ,                                       !- Beam Solar Day Schedule Name
  ,                                       !- Diffuse Solar Day Schedule Name
  0.528,                                  !- ASHRAE Clear Sky Optical Depth for Beam Irradiance {dimensionless}
  1.905;                                  !- ASHRAE Clear Sky Optical Depth for Diffuse Irradiance {dimensionless}

OS:Material:NoMass,
  {7a1e356d-1d2e-4063-a595-3798ca7a4426}, !- Handle
  Opaque Door panel_con,                  !- Name
  MediumRough,                            !- Roughness
  0.251585991802674,                      !- Thermal Resistance {m2-K/W}
  0.9,                                    !- Thermal Absorptance
  0.7,                                    !- Solar Absorptance
  0.7;                                    !- Visible Absorptance

OS:Construction,
  {8782610f-ca36-4ae3-8ab7-fef2b5d4a1e6}, !- Handle
  Swinging Door_con,                      !- Name
  ,                                       !- Surface Rendering Name
  {7a1e356d-1d2e-4063-a595-3798ca7a4426}; !- Layer 1

OS:Material,
  {3818113d-2022-493e-be39-564f8ab365ef}, !- Handle
  Std Wood 6inch,                         !- Name
  MediumSmooth,                           !- Roughness
  0.15,                                   !- Thickness {m}
  0.12,                                   !- Conductivity {W/m-K}
  540,                                    !- Density {kg/m3}
  1210,                                   !- Specific Heat {J/kg-K}
  0.9,                                    !- Thermal Absorptance
  0.7,                                    !- Solar Absorptance
  0.7;                                    !- Visible Absorptance

OS:Material,
  {0f756a39-c707-48f0-b5b3-33ecc1a8d335}, !- Handle
  AC02 Acoustic Ceiling,                  !- Name
  MediumSmooth,                           !- Roughness
  0.0127,                                 !- Thickness {m}
  0.057,                                  !- Conductivity {W/m-K}
  288,                                    !- Density {kg/m3}
  1339,                                   !- Specific Heat {J/kg-K}
  0.9,                                    !- Thermal Absorptance
  0.7,                                    !- Solar Absorptance
  0.2;                                    !- Visible Absorptance

OS:Material,
  {a8143adc-ad90-4c16-91fc-686f1738b364}, !- Handle
  F07 25mm stucco,                        !- Name
  Smooth,                                 !- Roughness
  0.0254,                                 !- Thickness {m}
  0.72,                                   !- Conductivity {W/m-K}
  1856,                                   !- Density {kg/m3}
  840,                                    !- Specific Heat {J/kg-K}
  0.9,                                    !- Thermal Absorptance
  0.7,                                    !- Solar Absorptance
  0.7;                                    !- Visible Absorptance

OS:Material,
  {90a77b5f-beb7-4dc2-9551-1535a4a48b91}, !- Handle
  F08 Metal surface,                      !- Name
  Smooth,                                 !- Roughness
  0.0008,                                 !- Thickness {m}
  45.28,                                  !- Conductivity {W/m-K}
  7824,                                   !- Density {kg/m3}
  500;                                    !- Specific Heat {J/kg-K}

OS:Material,
  {38d2128d-bfc5-4fec-a22e-7eff95ef3abc}, !- Handle
  F08 Metal roof surface,                 !- Name
  Smooth,                                 !- Roughness
  0.0008,                                 !- Thickness {m}
  45.28,                                  !- Conductivity {W/m-K}
  7824,                                   !- Density {kg/m3}
  500,                                    !- Specific Heat {J/kg-K}
  0.9,                                    !- Thermal Absorptance
  0.7;                                    !- Solar Absorptance

OS:Material,
  {8ec57850-20ae-4541-aaf3-dd5fe43cb6ee}, !- Handle
  F12 Asphalt shingles,                   !- Name
  VeryRough,                              !- Roughness
  0.0032,                                 !- Thickness {m}
  0.04,                                   !- Conductivity {W/m-K}
  1120,                                   !- Density {kg/m3}
  1260,                                   !- Specific Heat {J/kg-K}
  0.9,                                    !- Thermal Absorptance
  0.7;                                    !- Solar Absorptance

OS:Material,
  {e6b482ba-c654-4507-86b8-c117b1989479}, !- Handle
  F13 Built-up roofing,                   !- Name
  Rough,                                  !- Roughness
  0.0095,                                 !- Thickness {m}
  0.16,                                   !- Conductivity {W/m-K}
  1120,                                   !- Density {kg/m3}
  1460,                                   !- Specific Heat {J/kg-K}
  0.9,                                    !- Thermal Absorptance
  0.7;                                    !- Solar Absorptance

OS:Material,
  {5a07fb8d-9a17-40a0-967b-3ac74b99d595}, !- Handle
  G01 13mm gypsum board,                  !- Name
  Smooth,                                 !- Roughness
  0.0127,                                 !- Thickness {m}
  0.16,                                   !- Conductivity {W/m-K}
  800,                                    !- Density {kg/m3}
  1090,                                   !- Specific Heat {J/kg-K}
  0.9,                                    !- Thermal Absorptance
  0.7,                                    !- Solar Absorptance
  0.5;                                    !- Visible Absorptance

OS:Material,
  {e8f8591e-5c5e-4a6b-851f-0be7068f9790}, !- Handle
  G01 16mm gypsum board,                  !- Name
  MediumSmooth,                           !- Roughness
  0.0159,                                 !- Thickness {m}
  0.16,                                   !- Conductivity {W/m-K}
  800,                                    !- Density {kg/m3}
  1090;                                   !- Specific Heat {J/kg-K}

OS:Material,
  {6cf51a91-e57a-48c9-8bb0-5735a59f7ae1}, !- Handle
  G02 16mm plywood,                       !- Name
  Smooth,                                 !- Roughness
  0.0159,                                 !- Thickness {m}
  0.12,                                   !- Conductivity {W/m-K}
  544,                                    !- Density {kg/m3}
  1210;                                   !- Specific Heat {J/kg-K}

OS:Material,
  {d1483edb-ef3a-4d2a-9531-ed0bcec7e0a3}, !- Handle
  M14 150mm heavyweight concrete roof,    !- Name
  MediumRough,                            !- Roughness
  0.1524,                                 !- Thickness {m}
  2.31,                                   !- Conductivity {W/m-K}
  2322,                                   !- Density {kg/m3}
  832;                                    !- Specific Heat {J/kg-K}

OS:Material,
  {20dc852c-6ea2-4930-9281-2573545cbc3c}, !- Handle
  100mm Normalweight concrete wall,       !- Name
  MediumRough,                            !- Roughness
  0.1016,                                 !- Thickness {m}
  2.31,                                   !- Conductivity {W/m-K}
  2322,                                   !- Density {kg/m3}
  832;                                    !- Specific Heat {J/kg-K}

OS:Material,
  {bac9a2d3-ace3-4184-a961-9732bdbad233}, !- Handle
  200mm Normalweight concrete wall,       !- Name
  MediumRough,                            !- Roughness
  0.2032,                                 !- Thickness {m}
  2.31,                                   !- Conductivity {W/m-K}
  2322,                                   !- Density {kg/m3}
  832;                                    !- Specific Heat {J/kg-K}

OS:Material,
  {e4da4473-b978-447e-8c45-135e1ef39969}, !- Handle
  100mm Normalweight concrete floor,      !- Name
  MediumRough,                            !- Roughness
  0.1016,                                 !- Thickness {m}
  2.31,                                   !- Conductivity {W/m-K}
  2322,                                   !- Density {kg/m3}
  832;                                    !- Specific Heat {J/kg-K}

OS:Material,
  {b81ee327-7e81-4a25-9510-56bcc9bef1de}, !- Handle
  150mm Normalweight concrete floor,      !- Name
  MediumRough,                            !- Roughness
  0.1524,                                 !- Thickness {m}
  2.31,                                   !- Conductivity {W/m-K}
  2322,                                   !- Density {kg/m3}
  832;                                    !- Specific Heat {J/kg-K}

OS:Material,
  {828fb4f1-8f38-4262-889d-f6ac817502a6}, !- Handle
  200mm Normalweight concrete floor,      !- Name
  MediumRough,                            !- Roughness
  0.2032,                                 !- Thickness {m}
  2.31,                                   !- Conductivity {W/m-K}
  2322,                                   !- Density {kg/m3}
  832;                                    !- Specific Heat {J/kg-K}

OS:Material,
  {c170939d-b600-45de-952d-8cad38b2d4ec}, !- Handle
  M10 200mm concrete block wall,          !- Name
  MediumRough,                            !- Roughness
  0.2032,                                 !- Thickness {m}
  0.72,                                   !- Conductivity {W/m-K}
  800,                                    !- Density {kg/m3}
  832;                                    !- Specific Heat {J/kg-K}

OS:Material,
  {f3fc3892-dbe4-473d-b432-d5ba4818bf60}, !- Handle
  M10 200mm concrete block basement wall, !- Name
  MediumRough,                            !- Roughness
  0.2032,                                 !- Thickness {m}
  1.326,                                  !- Conductivity {W/m-K}
  1842,                                   !- Density {kg/m3}
  912;                                    !- Specific Heat {J/kg-K}

OS:Material:NoMass,
  {c0319feb-d0aa-476c-af27-83f78c13cb22}, !- Handle
  CP02 CARPET PAD,                        !- Name
  VeryRough,                              !- Roughness
  0.21648,                                !- Thermal Resistance {m2-K/W}
  0.9,                                    !- Thermal Absorptance
  0.7,                                    !- Solar Absorptance
  0.8;                                    !- Visible Absorptance

OS:Material:NoMass,
  {3cc60f3e-4f95-4e81-89e5-be44ea9b3486}, !- Handle
  Air_Wall_Material,                      !- Name
  Rough,                                  !- Roughness
  0.2079491,                              !- Thermal Resistance {m2-K/W}
  0.9,                                    !- Thermal Absorptance
  0.7;                                    !- Solar Absorptance

OS:Material:NoMass,
  {d230fb92-5c43-47fe-ae18-5b1968978275}, !- Handle
  Nonres_Roof_Insulation,                 !- Name
  MediumSmooth,                           !- Roughness
  2.59864128954982,                       !- Thermal Resistance {m2-K/W}
  0.9,                                    !- Thermal Absorptance
  0.7,                                    !- Solar Absorptance
  0.7;                                    !- Visible Absorptance

OS:Material:NoMass,
  {9738c6d6-b8cd-4de8-8016-1d47b2bb7f01}, !- Handle
  Res_Roof_Insulation,                    !- Name
  MediumSmooth,                           !- Roughness
  3.47220376108688,                       !- Thermal Resistance {m2-K/W}
  0.9,                                    !- Thermal Absorptance
  0.7,                                    !- Solar Absorptance
  0.7;                                    !- Visible Absorptance

OS:Material:NoMass,
  {7e2509a2-68cd-4f3a-aefd-559c19598c4c}, !- Handle
  Semiheated_Roof_Insulation,             !- Name
  MediumSmooth,                           !- Roughness
  0.611086308437969,                      !- Thermal Resistance {m2-K/W}
  0.9,                                    !- Thermal Absorptance
  0.7,                                    !- Solar Absorptance
  0.7;                                    !- Visible Absorptance

OS:Material:NoMass,
  {e4ea437e-f531-4f01-91d3-de1269b8b7a8}, !- Handle
  Nonres_Exterior_Wall_Insulation_grd,    !- Name
  MediumSmooth,                           !- Roughness
  0.518833538844668,                      !- Thermal Resistance {m2-K/W}
  0.9,                                    !- Thermal Absorptance
  0.7,                                    !- Solar Absorptance
  0.7;                                    !- Visible Absorptance

OS:Material:NoMass,
  {c29e0b70-14b7-4916-911d-6b56ec728cbc}, !- Handle
  Nonres_Exterior_Wall_Insulation_mid,    !- Name
  MediumSmooth,                           !- Roughness
  0.527655336138411,                      !- Thermal Resistance {m2-K/W}
  0.9,                                    !- Thermal Absorptance
  0.7,                                    !- Solar Absorptance
  0.7;                                    !- Visible Absorptance

OS:Material:NoMass,
  {c29924db-679f-4b4e-b721-e3246c9eeb1c}, !- Handle
  Nonres_Exterior_Wall_Insulation_top,    !- Name
  MediumSmooth,                           !- Roughness
  0.394071549744213,                      !- Thermal Resistance {m2-K/W}
  0.9,                                    !- Thermal Absorptance
  0.7,                                    !- Solar Absorptance
  0.7;                                    !- Visible Absorptance

OS:Material:NoMass,
  {6daafe35-648d-4b34-804c-feea713acb38}, !- Handle
  Res_Exterior_Wall_Insulation_grd,       !- Name
  MediumSmooth,                           !- Roughness
  0.518833538844668,                      !- Thermal Resistance {m2-K/W}
  0.9,                                    !- Thermal Absorptance
  0.7,                                    !- Solar Absorptance
  0.7;                                    !- Visible Absorptance

OS:Material:NoMass,
  {977fbf22-1f7a-4810-acd1-02ad74f648af}, !- Handle
  Res_Exterior_Wall_Insulation_mid,       !- Name
  MediumSmooth,                           !- Roughness
  0.527655336138411,                      !- Thermal Resistance {m2-K/W}
  0.9,                                    !- Thermal Absorptance
  0.7,                                    !- Solar Absorptance
  0.7;                                    !- Visible Absorptance

OS:Material:NoMass,
  {2b1e4748-4e6e-45b1-a3ff-83aeaa2591b8}, !- Handle
  Res_Exterior_Wall_Insulation_top,       !- Name
  MediumSmooth,                           !- Roughness
  0.394071549744213,                      !- Thermal Resistance {m2-K/W}
  0.9,                                    !- Thermal Absorptance
  0.7,                                    !- Solar Absorptance
  0.7;                                    !- Visible Absorptance

OS:Material:NoMass,
  {06c41ad2-e4b0-4f94-a70f-00ff275a51d5}, !- Handle
  Semiheated_Exterior_Wall_Insulation_grd, !- Name
  MediumSmooth,                           !- Roughness
  0.0324926419438895,                     !- Thermal Resistance {m2-K/W}
  0.9,                                    !- Thermal Absorptance
  0.7,                                    !- Solar Absorptance
  0.7;                                    !- Visible Absorptance

OS:Material:NoMass,
  {d52096fc-b65b-4f36-8090-8690584213a0}, !- Handle
  Semiheated_Exterior_Wall_Insulation_mid, !- Name
  MediumSmooth,                           !- Roughness
  0.0343588580167448,                     !- Thermal Resistance {m2-K/W}
  0.9,                                    !- Thermal Absorptance
  0.7,                                    !- Solar Absorptance
  0.7;                                    !- Visible Absorptance

OS:Material:NoMass,
  {531d80e8-4024-47b0-8557-96e9a91af6b7}, !- Handle
  Semiheated_Exterior_Wall_Insulation_top, !- Name
  MediumSmooth,                           !- Roughness
  0.00382542085486443,                    !- Thermal Resistance {m2-K/W}
  0.9,                                    !- Thermal Absorptance
  0.7,                                    !- Solar Absorptance
  0.7;                                    !- Visible Absorptance

OS:Material:NoMass,
  {a77a5c89-3874-4f3d-9b69-03cf020a7142}, !- Handle
  Nonres_Floor_Insulation,                !- Name
  MediumSmooth,                           !- Roughness
  0.0299387330245182,                     !- Thermal Resistance {m2-K/W}
  0.9,                                    !- Thermal Absorptance
  0.7,                                    !- Solar Absorptance
  0.7;                                    !- Visible Absorptance

OS:Material:NoMass,
  {ad4390ea-efcd-4dc2-b2a6-c82b7e7776d5}, !- Handle
  Res_Floor_Insulation,                   !- Name
  MediumSmooth,                           !- Roughness
  0.0299387330245182,                     !- Thermal Resistance {m2-K/W}
  0.9,                                    !- Thermal Absorptance
  0.7,                                    !- Solar Absorptance
  0.7;                                    !- Visible Absorptance

OS:Material:NoMass,
  {8efe3c2d-b194-4e09-81cc-2af813cf9c51}, !- Handle
  Semiheated_Floor_Insulation,            !- Name
  MediumSmooth,                           !- Roughness
  0.0299387330245182,                     !- Thermal Resistance {m2-K/W}
  0.9,                                    !- Thermal Absorptance
  0.7,                                    !- Solar Absorptance
  0.7;                                    !- Visible Absorptance

OS:Material:NoMass,
  {612b6189-0bc4-4cd8-9f11-c365c48bfc7a}, !- Handle
  Std Opaque Door Panel,                  !- Name
  MediumRough,                            !- Roughness
  0.123456790123457,                      !- Thermal Resistance {m2-K/W}
  0.9,                                    !- Thermal Absorptance
  0.7,                                    !- Solar Absorptance
  0.7;                                    !- Visible Absorptance

OS:Construction,
  {577a7c40-2175-4a41-9976-a30f70419560}, !- Handle
  InteriorFurnishings,                    !- Name
  ,                                       !- Surface Rendering Name
  {3818113d-2022-493e-be39-564f8ab365ef}; !- Layer 1

OS:Construction,
  {54c134fa-269e-4656-9e04-c83cfa5d9b5c}, !- Handle
  Air_Wall,                               !- Name
  ,                                       !- Surface Rendering Name
  {3cc60f3e-4f95-4e81-89e5-be44ea9b3486}; !- Layer 1

OS:Construction,
  {2f1cddc8-8db6-40b7-a1da-3c93f99db3d9}, !- Handle
  DropCeiling,                            !- Name
  ,                                       !- Surface Rendering Name
  {0f756a39-c707-48f0-b5b3-33ecc1a8d335}; !- Layer 1

OS:Construction,
  {03d6f90b-fba0-49e4-ac3b-344b32ad9406}, !- Handle
  OpaqueDoor,                             !- Name
  ,                                       !- Surface Rendering Name
  {612b6189-0bc4-4cd8-9f11-c365c48bfc7a}; !- Layer 1

OS:Construction,
  {a60e0802-efdc-4ea8-8615-7cff6571cdc7}, !- Handle