
OS:Version,
  {61615945-18b0-4ae4-a390-53805b8e8594}, !- Handle
  3.7.0;                                  !- Version Identifier

OS:Site,
  {fda1ea92-f6fd-4475-998a-3bddb7ce51eb}, !- Handle
  Miami Intl Ap_FL_USA Design_Conditions, !- Name
  25.82,                                  !- Latitude {deg}
  -80.3,                                  !- Longitude {deg}
  -5,                                     !- Time Zone {hr}
  11,                                     !- Elevation {m}
  City;                                   !- Terrain

OS:SimulationControl,
  {6270c2ed-fadf-46f7-9f24-48ac2a186c5a}, !- Handle
  Yes,                                    !- Do Zone Sizing Calculation
  Yes,                                    !- Do System Sizing Calculation
  Yes,                                    !- Do Plant Sizing Calculation
  No,                                     !- Run Simulation for Sizing Periods
  Yes,                                    !- Run Simulation for Weather File Run Periods
  0.04,                                   !- Loads Convergence Tolerance Value {W}
  0.2,                                    !- Temperature Convergence Tolerance Value {deltaC}
  FullInteriorAndExterior,                !- Solar Distribution
  25,                                     !- Maximum Number of Warmup Days
  6,                                      !- Minimum Number of Warmup Days
  No,                                     !- Do HVAC Sizing Simulation for Sizing Periods
  1;                                      !- Maximum Number of HVAC Sizing Simulation Passes

OS:Schedule:Compact,
  {29c9ba01-66b3-4d51-9e59-e7053113563b}, !- Handle
  PV_SCH,                                 !- Name
  {c6bc531a-353d-49b9-be27-513ffd5d3cec}, !- Schedule Type Limits Name
  Through: 12/31,                         !- Field 1
  For: AllDays,                           !- Field 2
  Until: 24:00,                           !- Field 3
  1;                                      !- Field 4

OS:ScheduleTypeLimits,
  {c6bc531a-353d-49b9-be27-513ffd5d3cec}, !- Handle
  Fraction,                               !- Name
  0,                                      !- Lower Limit Value
  1,                                      !- Upper Limit Value
  CONTINUOUS;                             !- Numeric Type

OS:Building,
  {a4cbed1c-0202-4fad-8c4e-1c5458a3e79b}, !- Handle
  OfficeSmall,                            !- Name
  ,                                       !- Building Sector Type
  0,                                      !- North Axis {deg}
  ,                                       !- Nominal Floor to Floor Height {m}
  ,                                       !- Space Type Name
  ,                                       !- Default Construction Set Name
  ;                                       !- Default Schedule Set Name

OS:ShadowCalculation,
  {16c8bb92-7331-4b47-9253-54b1374ad138}, !- Handle
  PolygonClipping,                        !- Shading Calculation Method
  Periodic,                               !- Shading Calculation Update Frequency Method
  30,                                     !- Shading Calculation Update Frequency
  15000,                                  !- Maximum Figures in Shadow Overlap Calculations
  ,                                       !- Polygon Clipping Algorithm
  512,                                    !- Pixel Counting Resolution
  ,                                       !- Sky Diffuse Modeling Algorithm
  No,                                     !- Output External Shading Calculation Results
  No,                                     !- Disable Self-Shading Within Shading Zone Groups
  No;                                     !- Disable Self-Shading From Shading Zone Groups to Other Zones

OS:HeatBalanceAlgorithm,
  {4ca5b721-6d63-413a-bb3a-d278d53bbc38}, !- Handle
  ConductionTransferFunction,             !- Algorithm
  200;                                    !- Surface Temperature Upper Limit {C}

OS:Timestep,
  {ee643879-b51a-4765-8760-e205e30edd08}, !- Handle
  6;                                      !- Number of Timesteps per Hour

OS:ConvergenceLimits,
  {1933fabe-2e6d-4f4b-8891-75ea3d2d2642}, !- Handle
  1,                                      !- Minimum System Timestep {minutes}
  20;                                     !- Maximum HVAC Iterations

OS:RunPeriod,
  {829ca7d3-4360-410b-b2c4-ebd2f9b2cb98}, !- Handle
  RUNPERIOD 1,                            !- Name
  1,                                      !- Begin Month
  1,                                      !- Begin Day of Month
  12,                                     !- End Month
  31,                                     !- End Day of Month
  No,                                     !- Use Weather File Holidays and Special Days
  No,                                     !- Use Weather File Daylight Saving Period
  No,                                     !- Apply Weekend Holiday Rule
  Yes,                                    !- Use Weather File Rain Indicators
  Yes,                                    !- Use Weather File Snow Indicators
  ;                                       !- Number of Times Runperiod to be Repeated

OS:YearDescription,
  {db41d0c4-76f6-4c26-a66f-e95822fa97a9}, !- Handle
  ,                                       !- Calendar Year
  Sunday;                                 !- Day of Week for Start Day

OS:Construction,
  {6957085f-972a-4129-bdc6-54f748276ead}, !- Handle
  basement_wall,                          !- Name
  ,                                       !- Surface Rendering Name
  {aeaed39e-5f38-40a9-a110-0208970fb679}; !- Layer 1

OS:Material,
  {aeaed39e-5f38-40a9-a110-0208970fb679}, !- Handle
  M10 200mm concrete block basement wall, !- Name
  MediumRough,                            !- Roughness
  0.2032,                                 !- Thickness {m}
  1.326,                                  !- Conductivity {W/m-K}
  1842,                                   !- Density {kg/m3}
  912;                                    !- Specific Heat {J/kg-K}

OS:RunPeriodControl:SpecialDays,
  {74fac8e6-ba84-44f6-9b4e-2f7ede21e725}, !- Handle
  New Years Day,                          !- Name
  January 1,                              !- Start Date
  1,                                      !- Duration {days}
  Holiday;                                !- Special Day Type

OS:RunPeriodControl:SpecialDays,
  {2e99a9c5-597b-460b-8942-772e3e137689}, !- Handle
  Veterans Day,                           !- Name
  November 11,                            !- Start Date
  1,                                      !- Duration {days}
  Holiday;                                !- Special Day Type

OS:RunPeriodControl:SpecialDays,
  {2bf0b5cb-4527-4929-986b-e9f8e49732b8}, !- Handle
  Christmas,                              !- Name
  December 25,                            !- Start Date
  1,                                      !- Duration {days}
  Holiday;                                !- Special Day Type

OS:RunPeriodControl:SpecialDays,
  {d51b35fb-936b-4d37-87df-fa2b6d0f3c9f}, !- Handle
  Independence Day,                       !- Name
  July 4,                                 !- Start Date
  1,                                      !- Duration {days}
  Holiday;                                !- Special Day Type

OS:RunPeriodControl:SpecialDays,
  {5ed138b0-a4d6-48c4-a33c-393ffa59db3d}, !- Handle
  MLK Day,                                !- Name
  3rd Monday in January,                  !- Start Date
  1,                                      !- Duration {days}
  Holiday;                                !- Special Day Type

OS:RunPeriodControl:SpecialDays,
  {7d34b7a4-fd42-4851-aaf6-02d11fd8a2d3}, !- Handle
  Memorial Day,                           !- Name
  Last Monday in May,                     !- Start Date
  1,                                      !- Duration {days}
  Holiday;                                !- Special Day Type

OS:RunPeriodControl:SpecialDays,
  {a24b0cc6-5097-40c7-9a1b-5a371a544068}, !- Handle
  Labor Day,                              !- Name
  1st Monday in September,                !- Start Date
  1,                                      !- Duration {days}
  Holiday;                                !- Special Day Type

OS:RunPeriodControl:SpecialDays,
  {7a80b068-b440-40d3-8a53-6a3e2446a064}, !- Handle
  Columbus Day,                           !- Name
  2nd Monday in October,                  !- Start Date
  1,                                      !- Duration {days}
  Holiday;                                !- Special Day Type

OS:RunPeriodControl:SpecialDays,
  {efb29e44-4617-486d-81fa-f2ab55f62a17}, !- Handle
  Thanksgiving,                           !- Name
  4th Thursday in November,               !- Start Date
  1,                                      !- Duration {days}
  Holiday;                                !- Special Day Type

OS:RunPeriodControl:DaylightSavingTime,
  {6367754f-7772-4f22-a7fe-5c88fb66bb22}, !- Handle
  2nd Sunday in March,                    !- Start Date
  1st Sunday in November;                 !- End Date

OS:SizingPeriod:DesignDay,
  {1ab4ed57-8682-4a6d-8db7-f3333c6e2f44}, !- Handle
  Miami Intl Ap Ann Htg 99.6% Condns DB,  !- Name
  8.7,                                    !- Maximum Dry-Bulb Temperature {C}
  0,                                      !- Daily Dry-Bulb Temperature Range {deltaC}
  101193,                                 !- Barometric Pressure {Pa}
  3.8,                                    !- Wind Speed {m/s}
  340,                                    !- Wind Direction {deg}
  0,                                      !- Sky Clearness
  No,                                     !- Rain Indicator
  No,                                     !- Snow Indicator
  21,                                     !- Day of Month
  1,                                      !- Month
  WinterDesignDay,                        !- Day Type
  No,                                     !- Daylight Saving Time Indicator
  Wetbulb,                                !- Humidity Condition Type
  ,                                       !- Humidity Condition Day Schedule Name
  8.7,                                    !- Wetbulb or DewPoint at Maximum Dry-Bulb {C}
  ,                                       !- Humidity Ratio at Maximum Dry-Bulb {kgWater/kgDryAir}
  ,                                       !- Enthalpy at Maximum Dry-Bulb {J/kg}
  DefaultMultipliers,                     !- Dry-Bulb Temperature Range Modifier Type
  ,                                       !- Dry-Bulb Temperature Range Modifier Day Schedule Name
  ASHRAEClearSky;                         !- Solar Model Indicator

OS:SizingPeriod:DesignDay,
  {ce1e7dbe-4b86-451c-9cb9-5a877721dd2d}, !- Handle
  Miami Intl Ap Ann Clg .4% Condns DB=>MWB, !- Name
  33.2,                                   !- Maximum Dry-Bulb Temperature {C}
  6.7,                                    !- Daily Dry-Bulb Temperature Range {deltaC}
  101193,                                 !- Barometric Pressure {Pa}
  4.5,                                    !- Wind Speed {m/s}
  140,                                    !- Wind Direction {deg}
  ,                                       !- Sky Clearness
  No,                                     !- Rain Indicator
  No,                                     !- Snow Indicator
  21,                                     !- Day of Month
  7,                                      !- Month
  SummerDesignDay,                        !- Day Type
  No,                                     !- Daylight Saving Time Indicator
  Wetbulb,                                !- Humidity Condition Type
  ,                                       !- Humidity Condition Day Schedule Name
  25.3,                                   !- Wetbulb or DewPoint at Maximum Dry-Bulb {C}
  ,                                       !- Humidity Ratio at Maximum Dry-Bulb {kgWater/kgDryAir}
  ,                                       !- Enthalpy at Maximum Dry-Bulb {J/kg}
  DefaultMultipliers,                     !- Dry-Bulb Temperature Range Modifier Type
  ,                                       !- Dry-Bulb Temperature Range Modifier Day Schedule Name
  ASHRAETau,                              !- Solar Model Indicator
  ,                                       !- Beam Solar Day Schedule Name
  ,                                       !- Diffuse Solar Day Schedule Name
  0.528,                                  !- ASHRAE Clear Sky Optical Depth for Beam Irradiance {dimensionless}
  1.905;                                  !- ASHRAE Clear Sky Optical Depth for Diffuse Irradiance {dimensionless}

OS:Material:NoMass,
  {76b548cb-6d13-42e9-924f-e34d2aca96d3}, !- Handle
  Opaque Door panel_con,                  !- Name
  MediumRough,                            !- Roughness
  0.475973498005059,                      !- Thermal Resistance {m2-K/W}
  0.9,                                    !- Thermal Absorptance
  0.7,                                    !- Solar Absorptance
  0.7;                                    !- Visible Absorptance

OS:Construction,
  {8c70383a-af0b-4acd-9a5a-eb3b9acc7e65}, !- Handle
  Swinging Door_con,                      !- Name
  ,                                       !- Surface Rendering Name
  {76b548cb-6d13-42e9-924f-e34d2aca96d3}; !- Layer 1

OS:ScheduleTypeLimits,
  {6077035f-5fe9-4a9f-9a08-5dd0b80a2de2}, !- Handle
  Schedule Type Limits 1;                 !- Name

OS:ScheduleTypeLimits,
  {49ed9176-c35b-4965-970a-e0c6bc09668c}, !- Handle
  Temperature,                            !- Name
  -60,                                    !- Lower Limit Value
  200,                                    !- Upper Limit Value
  CONTINUOUS,                             !- Numeric Type
  Temperature;                            !- Unit Type

OS:ScheduleTypeLimits,
  {293a9714-dc2a-4ba1-89a3-af51c50b99c0}, !- Handle
  On/Off,                                 !- Name
  0,                                      !- Lower Limit Value
  1,                                      !- Upper Limit Value
  DISCRETE,                               !- Numeric Type
  Availability;                           !- Unit Type

OS:ScheduleTypeLimits,
  {480322f4-6fa0-494a-b58d-63c280728e79}, !- Handle
  Control Type,                           !- Name
  0,                                      !- Lower Limit Value
  4,                                      !- Upper Limit Value
  DISCRETE,                               !- Numeric Type
  ControlMode;                            !- Unit Type

OS:ScheduleTypeLimits,
  {110273b2-0ba6-480d-bb5a-1479abb79c8b}, !- Handle
  Humidity,                               !- Name
  10,                                     !- Lower Limit Value
  90,                                     !- Upper Limit Value
  CONTINUOUS;                             !- Numeric Type

OS:ScheduleTypeLimits,
  {0c71f636-fde1-4be1-bac9-03fa431374a3}, !- Handle
  Schedule Type Limits 2;                 !- Name

OS:Schedule:Compact,
  {e72df561-c7f4-411a-be25-beecdadadb33}, !- Handle
  ltg_sch_office,                         !- Name
  {c6bc531a-353d-49b9-be27-513ffd5d3cec}, !- Schedule Type Limits Name
  Through: 12/31,                         !- Field 1
  For: SummerDesignDay,                   !- Field 2
  Until: 24:00,                           !- Field 3
  1,                                      !- Field 4
  For: WinterDesignDay,                   !- Field 5
  Until: 24:00,                           !- Field 6
  0,                                      !- Field 7
  For: Weekdays,                          !- Field 8
  Until: 5:00,                            !- Field 9
  0.120934906,                            !- Field 10
  Until: 7:00,                            !- Field 11
  0.1545268315,                           !- Field 12
  Until: 8:00,                            !- Field 13
  0.2821781355,                           !- Field 14
  Until: 12:00,                           !- Field 15
  0.6046645945,                           !- Field 16
  Until: 13:00,                           !- Field 17
  0.5374807435,                           !- Field 18
  Until: 17:00,                           !- Field 19
  0.6046645945,                           !- Field 20
  Until: 18:00,                           !- Field 21
  0.4098294395,                           !- Field 22
  Until: 20:00,                           !- Field 23
  0.2821781355,                           !- Field 24
  Until: 22:00,                           !- Field 25
  0.2149942845,                           !- Field 26
  Until: 23:00,                           !- Field 27
  0.1545268315,                           !- Field 28
  Until: 24:00,                           !- Field 29
  0.120934906,                            !- Field 30
  For: Saturday,                          !- Field 31
  Until: 24:00,                           !- Field 32
  0.120934906,                            !- Field 33
  For: AllOtherDays,                      !- Field 34
  Until: 24:00,                           !- Field 35
  0.120934906;                            !- Field 36

OS:Schedule:Compact,
  {52201d18-ffde-4914-bfb4-5113399a9aef}, !- Handle
  BLDG_EQUIP_SCH,                         !- Name
  {c6bc531a-353d-49b9-be27-513ffd5d3cec}, !- Schedule Type Limits Name
  Through: 12/31,                         !- Field 1
  For: WeekDays,                          !- Field 2
  Until: 6:00,                            !- Field 3
  0.4094775565,                           !- Field 4
  Until: 8:00,                            !- Field 5
  0.4797526335,                           !- Field 6
  Until: 12:00,                           !- Field 7
  0.959505267,                            !- Field 8
  Until: 13:00,                           !- Field 9
  0.90193495098,                          !- Field 10
  Until: 17:00,                           !- Field 11
  0.959505267,                            !- Field 12
  Until: 18:00,                           !- Field 13
  0.4797526335,                           !- Field 14
  Until: 23:00,                           !- Field 15
  0.1919010534,                           !- Field 16
  Until: 24:00,                           !- Field 17
  0.1637910226,                           !- Field 18
  For: Weekends,                          !- Field 19
  Until: 24:00,                           !- Field 20
  0.1637910226,                           !- Field 21
  For: Holiday,                           !- Field 22
  Until: 24:00,                           !- Field 23
  0.1637910226,                           !- Field 24
  For: WinterDesignDay,                   !- Field 25
  Until: 24:00,                           !- Field 26
  0.0,                                    !- Field 27
  For: SummerDesignDay,                   !- Field 28
  Until: 24:00,                           !- Field 29
  1.0,                                    !- Field 30
  For: CustomDay1,                        !- Field 31
  Until: 24:00,                           !- Field 32
  0.0,                                    !- Field 33
  For: CustomDay2,                        !- Field 34
  Until: 24:00,                           !- Field 35
  0.0;                                    !- Field 36

OS:Schedule:Compact,
  {75c59c1c-c282-4617-a815-c0349457d351}, !- Handle
  BLDG_OCC_SCH,                           !- Name
  {c6bc531a-353d-49b9-be27-513ffd5d3cec}, !- Schedule Type Limits Name
  Through: 12/31,                         !- Field 1
  For: Weekdays,                          !- Field 2
  Until: 6:00,                            !- Field 3
  0.0,                                    !- Field 4
  Until: 7:00,                            !- Field 5
  0.11,                                   !- Field 6
  Until: 8:00,                            !- Field 7
  0.21,                                   !- Field 8
  Until: 12:00,                           !- Field 9
  1.0,                                    !- Field 10
  Until: 13:00,                           !- Field 11
  0.53,                                   !- Field 12
  Until: 17:00,                           !- Field 13
  1.0,                                    !- Field 14
  Until: 18:00,                           !- Field 15
  0.32,                                   !- Field 16
  Until: 22:00,                           !- Field 17
  0.11,                                   !- Field 18
  Until: 23:00,                           !- Field 19
  0.05,                                   !- Field 20
  Until: 24:00,                           !- Field 21
  0.0,                                    !- Field 22
  For: Weekends,                          !- Field 23
  Until: 24:00,                           !- Field 24
  0.0,                                    !- Field 25
  For: Holiday,                           !- Field 26
  Until: 24:00,                           !- Field 27
  0.0,                                    !- Field 28
  For: WinterDesignDay,                   !- Field 29
  Until: 24:00,                           !- Field 30
  0.0,                                    !- Field 31
  For: SummerDesignDay,                   !- Field 32
  Until: 24:00,                           !- Field 33
  1.0,                                    !- Field 34
  For: CustomDay1,                        !- Field 35
  Until: 24:00,                           !- Field 36
  0.0,                                    !- Field 37
  For: CustomDay2,                        !- Field 38
  Until: 24:00,                           !- Field 39
  0.0;                                    !- Field 40

OS:Schedule:Compact,
  {835a51b9-8ac0-4ecf-8bd6-f78b66e1bf0f}, !- Handle
  BLDG_OCC_SCH_w_SB,                      !- Name
  {c6bc531a-353d-49b9-be27-513ffd5d3cec}, !- Schedule Type Limits Name
  Through: 12/31,                         !- Field 1
  For: Weekdays,                          !- Field 2
  Until: 01:00,                           !- Field 3
  0,                                      !- Field 4
  Until: 02:00,                           !- Field 5
  0,                                      !- Field 6
  Until: 03:00,                           !- Field 7
  0,                                      !- Field 8
  Until: 04:00,                           !- Field 9
  0,                                      !- Field 10
  Until: 05:00,                           !- Field 11
  0,                                      !- Field 12
  Until: 06:00,                           !- Field 13
  0,                                      !- Field 14
  Until: 07:00,                           !- Field 15
  0.11,                                   !- Field 16
  Until: 08:00,                           !- Field 17
  0.21,                                   !- Field 18
  Until: 09:00,                           !- Field 19
  1,                                      !- Field 20
  Until: 10:00,                           !- Field 21
  1,                                      !- Field 22
  Until: 11:00,                           !- Field 23
  0,                                      !- Field 24
  Until: 12:00,                           !- Field 25
  1,                                      !- Field 26
  Until: 13:00,                           !- Field 27
  0,                                      !- Field 28
  Until: 14:00,                           !- Field 29
  1,                                      !- Field 30
  Until: 15:00,                           !- Field 31
  0,                                      !- Field 32
  Until: 16:00,                           !- Field 33
  1,                                      !- Field 34
  Until: 17:00,                           !- Field 35
  1,                                      !- Field 36
  Until: 18:00,                           !- Field 37
  0.32,                                   !- Field 38
  Until: 19:00,                           !- Field 39
  0.11,                                   !- Field 40
  Until: 20:00,                           !- Field 41
  0.11,                                   !- Field 42
  Until: 21:00,                           !- Field 43
  0.11,                                   !- Field 44
  Until: 22:00,                           !- Field 45
  0.11,                                   !- Field 46
  Until: 23:00,                           !- Field 47
  0.05,                                   !- Field 48
  Until: 24:00,                           !- Field 49
  0,                                      !- Field 50
  For: Weekends,                          !- Field 51
  Until: 01:00,                           !- Field 52
  0,                                      !- Field 53
  Until: 02:00,                           !- Field 54
  0,                                      !- Field 55
  Until: 03:00,                           !- Field 56
  0,                                      !- Field 57
  Until: 04:00,                           !- Field 58
  0,                                      !- Field 59
  Until: 05:00,                           !- Field 60
  0,                                      !- Field 61
  Until: 06:00,                           !- Field 62
  0,                                      !- Field 63
  Until: 07:00,                           !- Field 64
  0,                                      !- Field 65
  Until: 08:00,                           !- Field 66
  0,                                      !- Field 67
  Until: 09:00,                           !- Field 68
  0,                                      !- Field 69
  Until: 10:00,                           !- Field 70
  0,                                      !- Field 71
  Until: 11:00,                           !- Field 72
  0,                                      !- Field 73
  Until: 12:00,                           !- Field 74
  0,                                      !- Field 75
  Until: 13:00,                           !- Field 76
  0,                                      !- Field 77
  Until: 14:00,                           !- Field 78
  0,                                      !- Field 79
  Until: 15:00,                           !- Field 80
  0,                                      !- Field 81
  Until: 16:00,                           !- Field 82
  0,                                      !- Field 83
  Until: 17:00,                           !- Field 84
  0,                                      !- Field 85
  Until: 18:00,                           !- Field 86
  0,                                      !- Field 87
  Until: 19:00,                           !- Field 88
  0,                                      !- Field 89
  Until: 20:00,                           !- Field 90
  0,                                      !- Field 91
  Until: 21:00,                           !- Field 92
  0,                                      !- Field 93
  Until: 22:00,                           !- Field 94
  0,                                      !- Field 95
  Until: 23:00,                           !- Field 96
  0,                                      !- Field 97
  Until: 24:00,                           !- Field 98
  0,                                      !- Field 99
  For: Holiday,                           !- Field 100
  Until: 24:00,                           !- Field 101
  0.0,                                    !- Field 102
  For: WinterDesignDay,                   !- Field 103
  Until: 24:00,                           !- Field 104
  0.0,                                    !- Field 105
  For: SummerDesignDay,                   !- Field 106
  Until: 24:00,                           !- Field 107
  1.0,                                    !- Field 108
  For: CustomDay1,                        !- Field 109
  Until: 24:00,                           !- Field 110
  0.0,                                    !- Field 111
  For: CustomDay2,                        !- Field 112
  Until: 24:00,                           !- Field 113
  0.0;                                    !- Field 114

OS:Schedule:Compact,
  {18207e66-e8fa-4a52-9050-8c4422282048}, !- Handle
  BLDG_OCC_SCH_wo_SB,                     !- Name
  {c6bc531a-353d-49b9-be27-513ffd5d3cec}, !- Schedule Type Limits Name
  Through: 12/31,                         !- Field 1
  For: Weekdays,                          !- Field 2
  Until: 01:00,                           !- Field 3
  0,                                      !- Field 4
  Until: 02:00,                           !- Field 5
  0,                                      !- Field 6
  Until: 03:00,                           !- Field 7
  0,                                      !- Field 8
  Until: 04:00,                           !- Field 9
  0,                                      !- Field 10
  Until: 05:00,                           !- Field 11
  0,                                      !- Field 12
  Until: 06:00,                           !- Field 13
  0,                                      !- Field 14
  Until: 07:00,                           !- Field 15
  0.11,                                   !- Field 16
  Until: 08:00,                           !- Field 17
  0.21,                                   !- Field 18
  Until: 09:00,                           !- Field 19
  1,                                      !- Field 20
  Until: 10:00,                           !- Field 21
  1,                                      !- Field 22
  Until: 11:00,                           !- Field 23
  1,                                      !- Field 24
  Until: 12:00,                           !- Field 25
  1,                                      !- Field 26
  Until: 13:00,                           !- Field 27
  0.610394505402463,                      !- Field 28
  Until: 14:00,                           !- Field 29
  1,                                      !- Field 30
  Until: 15:00,                           !- Field 31
  1,                                      !- Field 32
  Until: 16:00,                           !- Field 33
  1,                                      !- Field 34
  Until: 17:00,                           !- Field 35