
OS:Version,
  {65da795c-b0f1-4ce6-9b71-02363ab89087}, !- Handle
  3.7.0;                                  !- Version Identifier

OS:Material,
  {4518dd70-09cb-4e26-a581-0905a53c4181}, !- Handle
  Material 1,                             !- Name
  Smooth,                                 !- Roughness
  0.0254,                                 !- Thickness {m}
  0.72,                                   !- Conductivity {W/m-K}
  1856,                                   !- Density {kg/m3}
  840;                                    !- Specific Heat {J/kg-K}

OS:Material,
  {f2911b2a-3dd0-4ada-bfff-9b4dee4c7e43}, !- Handle
  Material 2,                             !- Name
  MediumSmooth,                           !- Roughness
  0.0159,                                 !- Thickness {m}
  0.16,                                   !- Conductivity {W/m-K}
  800,                                    !- Density {kg/m3}
  1090;                                   !- Specific Heat {J/kg-K}

OS:Material:NoMass,
  {8701c8dd-b3b9-4bed-ba63-91fbc59bd0c4}, !- Handle
  Material No Mass 1,                     !- Name
  MediumSmooth,                           !- Roughness
  1.06783369996193,                       !- Thermal Resistance {m2-K/W}
  0.9,                                    !- Thermal Absorptance
  0.7,                                    !- Solar Absorptance
  0.7;                                    !- Visible Absorptance

OS:Material,
  {9dda547d-c8e6-4418-81e0-c9bc43a9e2da}, !- Handle
  Material 3,                             !- Name
  MediumSmooth,                           !- Roughness
  0.0159,                                 !- Thickness {m}
  0.16,                                   !- Conductivity {W/m-K}
  800,                                    !- Density {kg/m3}
  1090;                                   !- Specific Heat {J/kg-K}

OS:Construction,
  {5a512c5f-9a45-403b-907c-faf8e8d148b5}, !- Handle
  res_ext_wall_grd,                       !- Name
  ,                                       !- Surface Rendering Name
  {4518dd70-09cb-4e26-a581-0905a53c4181}, !- Layer 1
  {f2911b2a-3dd0-4ada-bfff-9b4dee4c7e43}, !- Layer 2
  {8701c8dd-b3b9-4bed-ba63-91fbc59bd0c4}, !- Layer 3
  {9dda547d-c8e6-4418-81e0-c9bc43a9e2da}; !- Layer 4

OS:Material,
  {d1df3b7a-f553-42b4-85ed-a4b8fe6f2242}, !- Handle
  Material 4,                             !- Name
  Smooth,                                 !- Roughness
  0.0127,                                 !- Thickness {m}
  0.16,                                   !- Conductivity {W/m-K}
  800,                                    !- Density {kg/m3}
  1090;                                   !- Specific Heat {J/kg-K}

OS:Material,
  {11868120-2b74-4b3e-8bc2-80dad2823e22}, !- Handle
  Material 5,                             !- Name
  Smooth,                                 !- Roughness
  0.0127,                                 !- Thickness {m}
  0.16,                                   !- Conductivity {W/m-K}
  800,                                    !- Density {kg/m3}
  1090;                                   !- Specific Heat {J/kg-K}

OS:Construction,
  {6970eec2-c84d-4b23-b01e-b7dbce206e47}, !- Handle
  int_wall,                               !- Name
  ,                                       !- Surface Rendering Name
  {d1df3b7a-f553-42b4-85ed-a4b8fe6f2242}, !- Layer 1
  {11868120-2b74-4b3e-8bc2-80dad2823e22}; !- Layer 2

OS:WindowMaterial:SimpleGlazingSystem,
  {c949dd21-2af2-420f-b088-932b34d536e6}, !- Handle
  Window Material Simple Glazing System 1, !- Name
  2.86184304,                             !- U-Factor {W/m2-K}
  0.229,                                  !- Solar Heat Gain Coefficient
  0.2519;                                 !- Visible Transmittance

OS:Construction,
  {6dfa959f-8dae-4f33-a5d0-be4439323b7c}, !- Handle
  Window_U_0.504_SHGC_North_0.229,        !- Name
  ,                                       !- Surface Rendering Name
  {c949dd21-2af2-420f-b088-932b34d536e6}; !- Layer 1

OS:Material:NoMass,
  {f0b39711-bf09-4801-bb7b-5b6c6e2455fa}, !- Handle
  Material No Mass 2,                     !- Name
  MediumRough,                            !- Roughness
  0.475973498005059,                      !- Thermal Resistance {m2-K/W}
  0.9,                                    !- Thermal Absorptance
  0.7,                                    !- Solar Absorptance
  0.7;                                    !- Visible Absorptance

OS:Construction,
  {32d1acfb-d74b-4fd9-815c-17d40b2ae1cb}, !- Handle
  Swinging Door_con,                      !- Name
  ,                                       !- Surface Rendering Name
  {f0b39711-bf09-4801-bb7b-5b6c6e2455fa}; !- Layer 1

OS:BuildingStory,
  {082cf64b-f0dc-4abc-90f0-d5626e0a298e}, !- Handle
  Ground_level,                           !- Name
  ,                                       !- Nominal Z Coordinate {m}
  ,                                       !- Nominal Floor to Floor Height {m}
  ,                                       !- Default Construction Set Name
  ,                                       !- Default Schedule Set Name
  ;                                       !- Group Rendering Name

OS:Space,
  {79a5d734-7b9c-4122-aefd-e8ad9a8eea32}, !- Handle
  Perimeter_ZN_4,                         !- Name
  ,                                       !- Space Type Name
  ,                                       !- Default Construction Set Name
  ,                                       !- Default Schedule Set Name
  ,                                       !- Direction of Relative North {deg}
  ,                                       !- X Origin {m}
  ,                                       !- Y Origin {m}
  ,                                       !- Z Origin {m}
  {082cf64b-f0dc-4abc-90f0-d5626e0a298e}, !- Building Story Name
  {ca9cae75-9661-43d9-a115-768dd7ae8910}, !- Thermal Zone Name
  ,                                       !- Part of Total Floor Area
  {3661305c-c0a3-4d57-b701-93627358c234}, !- Design Specification Outdoor Air Object Name
  ,                                       !- Building Unit Name
  ,                                       !- Volume {m3}
  ,                                       !- Ceiling Height {m}
  Autocalculate;                          !- Floor Area {m2}

OS:ThermalZone,
  {ca9cae75-9661-43d9-a115-768dd7ae8910}, !- Handle
  Perimeter_ZN_4_tzone,                   !- Name
  ,                                       !- Multiplier
  ,                                       !- Ceiling Height {m}
  ,                                       !- Volume {m3}
  ,                                       !- Floor Area {m2}
  ,                                       !- Zone Inside Convection Algorithm
  ,                                       !- Zone Outside Convection Algorithm
  ,                                       !- Zone Conditioning Equipment List Name
  {3ad7d8fd-eb3b-4207-afc0-2b60b145390b}, !- Zone Air Inlet Port List
  {cd9a80d3-20ed-4544-9382-72473a0f304c}, !- Zone Air Exhaust Port List
  {f80f50c2-426f-4f40-ba48-e577b2cf5f9c}, !- Zone Air Node Name
  {2858d9fa-8ff7-47ee-89ca-4b6e822c5af6}, !- Zone Return Air Port List
  ,                                       !- Primary Daylighting Control Name
  ,                                       !- Fraction of Zone Controlled by Primary Daylighting Control
  ,                                       !- Secondary Daylighting Control Name
  ,                                       !- Fraction of Zone Controlled by Secondary Daylighting Control
  ,                                       !- Illuminance Map Name
  ,                                       !- Group Rendering Name
  {19a220f9-1869-4475-94bc-fc078bb202c2}, !- Thermostat Name
  No;                                     !- Use Ideal Air Loads

OS:Node,
  {7968040c-ff9d-4416-ab6d-b68ffd1fe80f}, !- Handle
  Node 1,                                 !- Name
  {f80f50c2-426f-4f40-ba48-e577b2cf5f9c}, !- Inlet Port
  ;                                       !- Outlet Port

OS:Connection,
  {f80f50c2-426f-4f40-ba48-e577b2cf5f9c}, !- Handle
  {ca9cae75-9661-43d9-a115-768dd7ae8910}, !- Source Object
  11,                                     !- Outlet Port
  {7968040c-ff9d-4416-ab6d-b68ffd1fe80f}, !- Target Object
  2;                                      !- Inlet Port

OS:PortList,
  {3ad7d8fd-eb3b-4207-afc0-2b60b145390b}, !- Handle
  {ca9cae75-9661-43d9-a115-768dd7ae8910}; !- HVAC Component

OS:PortList,
  {cd9a80d3-20ed-4544-9382-72473a0f304c}, !- Handle
  {ca9cae75-9661-43d9-a115-768dd7ae8910}; !- HVAC Component

OS:PortList,
  {2858d9fa-8ff7-47ee-89ca-4b6e822c5af6}, !- Handle
  {ca9cae75-9661-43d9-a115-768dd7ae8910}; !- HVAC Component

OS:Sizing:Zone,
  {6daedebb-b5a3-4398-b3c2-bf5e09f9ae3f}, !- Handle
  {ca9cae75-9661-43d9-a115-768dd7ae8910}, !- Zone or ZoneList Name
  SupplyAirTemperature,                   !- Zone Cooling Design Supply Air Temperature Input Method
  14,                                     !- Zone Cooling Design Supply Air Temperature {C}
  11.11,                                  !- Zone Cooling Design Supply Air Temperature Difference {deltaC}
  SupplyAirTemperature,                   !- Zone Heating Design Supply Air Temperature Input Method
  40,                                     !- Zone Heating Design Supply Air Temperature {C}
  11.11,                                  !- Zone Heating Design Supply Air Temperature Difference {deltaC}
  0.0085,                                 !- Zone Cooling Design Supply Air Humidity Ratio {kg-H2O/kg-air}
  0.008,                                  !- Zone Heating Design Supply Air Humidity Ratio {kg-H2O/kg-air}
  ,                                       !- Zone Heating Sizing Factor
  ,                                       !- Zone Cooling Sizing Factor
  DesignDay,                              !- Cooling Design Air Flow Method
  ,                                       !- Cooling Design Air Flow Rate {m3/s}
  ,                                       !- Cooling Minimum Air Flow per Zone Floor Area {m3/s-m2}
  ,                                       !- Cooling Minimum Air Flow {m3/s}
  ,                                       !- Cooling Minimum Air Flow Fraction
  DesignDay,                              !- Heating Design Air Flow Method
  ,                                       !- Heating Design Air Flow Rate {m3/s}
  ,                                       !- Heating Maximum Air Flow per Zone Floor Area {m3/s-m2}
  ,                                       !- Heating Maximum Air Flow {m3/s}
  ,                                       !- Heating Maximum Air Flow Fraction
  No,                                     !- Account for Dedicated Outdoor Air System
  NeutralSupplyAir,                       !- Dedicated Outdoor Air System Control Strategy
  autosize,                               !- Dedicated Outdoor Air Low Setpoint Temperature for Design {C}
  autosize,                               !- Dedicated Outdoor Air High Setpoint Temperature for Design {C}
  Sensible Load Only No Latent Load,      !- Zone Load Sizing Method
  HumidityRatioDifference,                !- Zone Latent Cooling Design Supply Air Humidity Ratio Input Method
  ,                                       !- Zone Dehumidification Design Supply Air Humidity Ratio {kgWater/kgDryAir}
  0.005,                                  !- Zone Cooling Design Supply Air Humidity Ratio Difference {kgWater/kgDryAir}
  HumidityRatioDifference,                !- Zone Latent Heating Design Supply Air Humidity Ratio Input Method
  ,                                       !- Zone Humidification Design Supply Air Humidity Ratio {kgWater/kgDryAir}
  0.005;                                  !- Zone Humidification Design Supply Air Humidity Ratio Difference {kgWater/kgDryAir}

OS:ZoneHVAC:EquipmentList,
  {b1f6a764-d008-46a7-b9cd-ffb4b3e5b682}, !- Handle
  Zone HVAC Equipment List 1,             !- Name
  {ca9cae75-9661-43d9-a115-768dd7ae8910}; !- Thermal Zone

OS:Surface,
  {a60a75d0-0aba-4041-a79f-69e23f100521}, !- Handle
  Perimeter_ZN_4_envelope_0,              !- Name
  Wall,                                   !- Surface Type
  {5a512c5f-9a45-403b-907c-faf8e8d148b5}, !- Construction Name
  {79a5d734-7b9c-4122-aefd-e8ad9a8eea32}, !- Space Name
  Outdoors,                               !- Outside Boundary Condition
  ,                                       !- Outside Boundary Condition Object
  SunExposed,                             !- Sun Exposure
  WindExposed,                            !- Wind Exposure
  ,                                       !- View Factor to Ground
  ,                                       !- Number of Vertices
  -0, 18.46, -0.1,                        !- X,Y,Z Vertex 1 {m}
  -0, 0, -0.1,                            !- X,Y,Z Vertex 2 {m}
  -0, 0, 3.05795,                         !- X,Y,Z Vertex 3 {m}
  -0, 18.46, 3.05795;                     !- X,Y,Z Vertex 4 {m}

OS:SubSurface,
  {3f33d097-73eb-4928-9669-676fc4bbb9d6}, !- Handle
  Perimeter_ZN_4_wall_west_Window_4,      !- Name
  FixedWindow,                            !- Sub Surface Type
  {6dfa959f-8dae-4f33-a5d0-be4439323b7c}, !- Construction Name
  {a60a75d0-0aba-4041-a79f-69e23f100521}, !- Surface Name
  ,                                       !- Outside Boundary Condition Object
  ,                                       !- View Factor to Ground
  ,                                       !- Frame and Divider Name
  ,                                       !- Multiplier
  ,                                       !- Number of Vertices
  0, 3.22, 0.900816,                      !- X,Y,Z Vertex 1 {m}
  0, 1.39, 0.900816,                      !- X,Y,Z Vertex 2 {m}
  0, 1.39, 2.423816,                      !- X,Y,Z Vertex 3 {m}
  0, 3.22, 2.423816;                      !- X,Y,Z Vertex 4 {m}

OS:SubSurface,
  {162eb267-7156-43c5-b00f-3d51e7401551}, !- Handle
  Perimeter_ZN_4_wall_west_Window_3,      !- Name
  FixedWindow,                            !- Sub Surface Type
  {6dfa959f-8dae-4f33-a5d0-be4439323b7c}, !- Construction Name
  {a60a75d0-0aba-4041-a79f-69e23f100521}, !- Surface Name
  ,                                       !- Outside Boundary Condition Object
  ,                                       !- View Factor to Ground
  ,                                       !- Frame and Divider Name
  ,                                       !- Multiplier
  ,                                       !- Number of Vertices
  0, 7.84, 0.900816,                      !- X,Y,Z Vertex 1 {m}
  0, 6.01, 0.900816,                      !- X,Y,Z Vertex 2 {m}
  0, 6.01, 2.423816,                      !- X,Y,Z Vertex 3 {m}
  0, 7.84, 2.423816;                      !- X,Y,Z Vertex 4 {m}

OS:SubSurface,
  {6f4950d8-dddb-4460-b3a8-3c237085571a}, !- Handle
  Perimeter_ZN_4_wall_west_Window_2,      !- Name
  FixedWindow,                            !- Sub Surface Type
  {6dfa959f-8dae-4f33-a5d0-be4439323b7c}, !- Construction Name
  {a60a75d0-0aba-4041-a79f-69e23f100521}, !- Surface Name
  ,                                       !- Outside Boundary Condition Object
  ,                                       !- View Factor to Ground
  ,                                       !- Frame and Divider Name
  ,                                       !- Multiplier
  ,                                       !- Number of Vertices
  0, 12.45, 0.900816,                     !- X,Y,Z Vertex 1 {m}
  0, 10.62, 0.900816,                     !- X,Y,Z Vertex 2 {m}
  0, 10.62, 2.423816,                     !- X,Y,Z Vertex 3 {m}
  0, 12.45, 2.423816;                     !- X,Y,Z Vertex 4 {m}

OS:SubSurface,
  {bd0ef77b-4070-42ef-9233-556c13c59419}, !- Handle
  Perimeter_ZN_4_wall_west_Window_1,      !- Name
  FixedWindow,                            !- Sub Surface Type
  {6dfa959f-8dae-4f33-a5d0-be4439323b7c}, !- Construction Name
  {a60a75d0-0aba-4041-a79f-69e23f100521}, !- Surface Name
  ,                                       !- Outside Boundary Condition Object
  ,                                       !- View Factor to Ground
  ,                                       !- Frame and Divider Name
  ,                                       !- Multiplier
  ,                                       !- Number of Vertices
  0, 17.07, 0.900816,                     !- X,Y,Z Vertex 1 {m}
  0, 15.24, 0.900816,                     !- X,Y,Z Vertex 2 {m}
  0, 15.24, 2.423816,                     !- X,Y,Z Vertex 3 {m}
  0, 17.07, 2.423816;                     !- X,Y,Z Vertex 4 {m}

OS:Surface,
  {9e54df6b-e104-4c32-8ffa-8a03df73fd39}, !- Handle
  Perimeter_ZN_4_envelope_1,              !- Name
  Floor,                                  !- Surface Type
  {5a512c5f-9a45-403b-907c-faf8e8d148b5}, !- Construction Name
  {79a5d734-7b9c-4122-aefd-e8ad9a8eea32}, !- Space Name
  Ground,                                 !- Outside Boundary Condition
  ,                                       !- Outside Boundary Condition Object
  NoSun,                                  !- Sun Exposure
  NoWind,                                 !- Wind Exposure
  ,                                       !- View Factor to Ground
  ,                                       !- Number of Vertices
  -0, 18.46, -0.1,                        !- X,Y,Z Vertex 1 {m}
  5, 13.46, -0.1,                         !- X,Y,Z Vertex 2 {m}
  5, 5, -0.1,                             !- X,Y,Z Vertex 3 {m}
  -0, 0, -0.1;                            !- X,Y,Z Vertex 4 {m}

OS:Surface,
  {063c68ee-6dd3-4e38-aed9-156a0891b925}, !- Handle
  Perimeter_ZN_4_envelope_2,              !- Name
  RoofCeiling,                            !- Surface Type
  {5a512c5f-9a45-403b-907c-faf8e8d148b5}, !- Construction Name
  {79a5d734-7b9c-4122-aefd-e8ad9a8eea32}, !- Space Name
  Outdoors,                               !- Outside Boundary Condition
  ,                                       !- Outside Boundary Condition Object
  SunExposed,                             !- Sun Exposure
  WindExposed,                            !- Wind Exposure
  ,                                       !- View Factor to Ground
  ,                                       !- Number of Vertices
  5, 13.46, 3.05795,                      !- X,Y,Z Vertex 1 {m}
  -0, 18.46, 3.05795,                     !- X,Y,Z Vertex 2 {m}
  -0, 0, 3.05795,                         !- X,Y,Z Vertex 3 {m}
  5, 5, 3.05795;                          !- X,Y,Z Vertex 4 {m}

OS:Surface,
  {292cc378-954d-4de1-b2c2-58b892cd0685}, !- Handle
  Perimeter_ZN_4_envelope_3,              !- Name
  Wall,                                   !- Surface Type
  {6970eec2-c84d-4b23-b01e-b7dbce206e47}, !- Construction Name
  {79a5d734-7b9c-4122-aefd-e8ad9a8eea32}, !- Space Name
  Outdoors,                               !- Outside Boundary Condition
  ,                                       !- Outside Boundary Condition Object
  SunExposed,                             !- Sun Exposure
  WindExposed,                            !- Wind Exposure
  ,                                       !- View Factor to Ground
  ,                                       !- Number of Vertices
  -0, 0, -0.1,                            !- X,Y,Z Vertex 1 {m}
  5, 5, -0.1,                             !- X,Y,Z Vertex 2 {m}
  5, 5, 3.05795,                          !- X,Y,Z Vertex 3 {m}
  -0, 0, 3.05795;                         !- X,Y,Z Vertex 4 {m}

OS:Surface,
  {eba3bf37-a4ce-4731-b42a-198717c5afd7}, !- Handle
  Perimeter_ZN_4_envelope_4,              !- Name
  Wall,                                   !- Surface Type
  {6970eec2-c84d-4b23-b01e-b7dbce206e47}, !- Construction Name
  {79a5d734-7b9c-4122-aefd-e8ad9a8eea32}, !- Space Name
  Outdoors,                               !- Outside Boundary Condition
  ,                                       !- Outside Boundary Condition Object
  SunExposed,                             !- Sun Exposure
  WindExposed,                            !- Wind Exposure
  ,                                       !- View Factor to Ground
  ,                                       !- Number of Vertices
  5, 13.46, -0.1,                         !- X,Y,Z Vertex 1 {m}
  -0, 18.46, -0.1,                        !- X,Y,Z Vertex 2 {m}
  -0, 18.46, 3.05795,                     !- X,Y,Z Vertex 3 {m}
  5, 13.46, 3.05795;                      !- X,Y,Z Vertex 4 {m}

OS:Surface,
  {46fe6785-0b93-4c60-a1f6-4bc74eac637e}, !- Handle
  Perimeter_ZN_4_envelope_5,              !- Name
  Wall,                                   !- Surface Type
  {6970eec2-c84d-4b23-b01e-b7dbce206e47}, !- Construction Name
  {79a5d734-7b9c-4122-aefd-e8ad9a8eea32}, !- Space Name
  Outdoors,                               !- Outside Boundary Condition
  ,                                       !- Outside Boundary Condition Object
  SunExposed,                             !- Sun Exposure
  WindExposed,                            !- Wind Exposure
  ,                                       !- View Factor to Ground
  ,                                       !- Number of Vertices
  5, 5, -0.1,                             !- X,Y,Z Vertex 1 {m}
  5, 13.46, -0.1,                         !- X,Y,Z Vertex 2 {m}
  5, 13.46, 3.05795,                      !- X,Y,Z Vertex 3 {m}
  5, 5, 3.05795;                          !- X,Y,Z Vertex 4 {m}

OS:DesignSpecification:OutdoorAir,
  {3661305c-c0a3-4d57-b701-93627358c234}, !- Handle
  Design Specification Outdoor Air 1,     !- Name
  ,                                       !- Outdoor Air Method
  ,                                       !- Outdoor Air Flow per Person {m3/s-person}
  0.00043,                                !- Outdoor Air Flow per Floor Area {m3/s-m2}
  ,                                       !- Outdoor Air Flow Rate {m3/s}
  ,                                       !- Outdoor Air Flow Air Changes per Hour {1/hr}
  ;                                       !- Outdoor Air Flow Rate Fraction Schedule Name

OS:Space,
  {e4d53ce0-b59e-4509-bc41-587071dd603f}, !- Handle
  Perimeter_ZN_2,                         !- Name
  ,                                       !- Space Type Name
  ,                                       !- Default Construction Set Name
  ,                                       !- Default Schedule Set Name
  ,                                       !- Direction of Relative North {deg}
  ,                                       !- X Origin {m}
  ,                                       !- Y Origin {m}
  ,                                       !- Z Origin {m}
  {082cf64b-f0dc-4abc-90f0-d5626e0a298e}, !- Building Story Name
  {ff66dcb7-a031-474a-9c60-733e13bbae62}, !- Thermal Zone Name
  ,                                       !- Part of Total Floor Area
  {8d26a78d-9dae-4ccf-ad5d-20860d91a62a}, !- Design Specification Outdoor Air Object Name
  ,                                       !- Building Unit Name
  ,                                       !- Volume {m3}
  ,                                       !- Ceiling Height {m}
  Autocalculate;                          !- Floor Area {m2}

OS:ThermalZone,
  {ff66dcb7-a031-474a-9c60-733e13bbae62}, !- Handle
  Perimeter_ZN_2_tzone,                   !- Name
  ,                                       !- Multiplier
  ,                                       !- Ceiling Height {m}
  ,                                       !- Volume {m3}
  ,                                       !- Floor Area {m2}
  ,                                       !- Zone Inside Convection Algorithm
  ,                                       !- Zone Outside Convection Algorithm
  ,                                       !- Zone Conditioning Equipment List Name
  {491f14d9-197d-40f7-9feb-61d537df7221}, !- Zone Air Inlet Port List
  {a0d376f4-d459-443c-8589-062f8150109c}, !- Zone Air Exhaust Port List
  {45afa9bc-463b-4a8c-809a-9ae4ae54c4b2}, !- Zone Air Node Name
  {e9438534-85d0-4d12-8a9b-823e1c1c210e}, !- Zone Return Air Port List
  ,                                       !- Primary Daylighting Control Name
  ,                                       !- Fraction of Zone Controlled by Primary Daylighting Control
  ,                                       !- Secondary Daylighting Control Name
  ,                                       !- Fraction of Zone Controlled by Secondary Daylighting Control
  ,                                       !- Illuminance Map Name
  ,                                       !- Group Rendering Name
  {aa992992-e8a0-4c24-936a-63ea9ba8a6e0}, !- Thermostat Name
  No;                                     !- Use Ideal Air Loads

OS:Node,
  {c2689429-38c4-4358-85ba-9e0a2dbdea8f}, !- Handle
  Node 2,                                 !- Name
  {45afa9bc-463b-4a8c-809a-9ae4ae54c4b2}, !- Inlet Port
  ;                                       !- Outlet Port

OS:Connection,
  {45afa9bc-463b-4a8c-809a-9ae4ae54c4b2}, !- Handle
  {ff66dcb7-a031-474a-9c60-733e13bbae62}, !- Source Object
  11,                                     !- Outlet Port
  {c2689429-38c4-4358-85ba-9e0a2dbdea8f}, !- Target Object
  2;                                      !- Inlet Port

OS:PortList,
  {491f14d9-197d-40f7-9feb-61d537df7221}, !- Handle
  {ff66dcb7-a031-474a-9c60-733e13bbae62}; !- HVAC Component

OS:PortList,
  {a0d376f4-d459-443c-8589-062f8150109c}, !- Handle
  {ff66dcb7-a031-474a-9c60-733e13bbae62}; !- HVAC Component

OS:PortList,
  {e9438534-85d0-4d12-8a9b-823e1c1c210e}, !- Handle
  {ff66dcb7-a031-474a-9c60-733e13bbae62}; !- HVAC Component

OS:Sizing:Zone,
  {82e99aef-84bf-4c41-a354-a0456a2f5d96}, !- Handle
  {ff66dcb7-a031-474a-9c60-733e13bbae62}, !- Zone or ZoneList Name
  SupplyAirTemperature,                   !- Zone Cooling Design Supply Air Temperature Input Method
  14,                                     !- Zone Cooling Design Supply Air Temperature {C}
  11.11,                                  !- Zone Cooling Design Supply Air Temperature Difference {deltaC}
  SupplyAirTemperature,                   !- Zone Heating Design Supply Air Temperature Input Method
  40,                                     !- Zone Heating Design Supply Air Temperature {C}
  11.11,                                  !- Zone Heating Design Supply Air Temperature Difference {deltaC}
  0.0085,                                 !- Zone Cooling Design Supply Air Humidity Ratio {kg-H2O/kg-air}
  0.008,                                  !- Zone Heating Design Supply Air Humidity Ratio {kg-H2O/kg-air}
  ,                                       !- Zone Heating Sizing Factor
  ,                                       !- Zone Cooling Sizing Factor
  DesignDay,                              !- Cooling Design Air Flow Method
  ,                                       !- Cooling Design Air Flow Rate {m3/s}
  ,                                       !- Cooling Minimum Air Flow per Zone Floor Area {m3/s-m2}
  ,                                       !- Cooling Minimum Air Flow {m3/s}
  ,                                       !- Cooling Minimum Air Flow Fraction
  DesignDay,                              !- Heating Design Air Flow Method
  ,                                       !- Heating Design Air Flow Rate {m3/s}
  ,                                       !- Heating Maximum Air Flow per Zone Floor Area {m3/s-m2}
  ,                                       !- Heating Maximum Air Flow {m3/s}
  ,                                       !- Heating Maximum Air Flow Fraction
  No,                                     !- Account for Dedicated Outdoor Air System
  NeutralSupplyAir,                       !- Dedicated Outdoor Air System Control Strategy
  autosize,                               !- Dedicated Outdoor Air Low Setpoint Temperature for Design {C}
  autosize,                               !- Dedicated Outdoor Air High Setpoint Temperature for Design {C}
  Sensible Load Only No Latent Load,      !- Zone Load Sizing Method
  HumidityRatioDifference,                !- Zone Latent Cooling Design Supply Air Humidity Ratio Input Method
  ,                                       !- Zone Dehumidification Design Supply Air Humidity Ratio {kgWater/kgDryAir}
  0.005,                                  !- Zone Cooling Design Supply Air Humidity Ratio Difference {kgWater/kgDryAir}
  HumidityRatioDifference,                !- Zone Latent Heating Design Supply Air Humidity Ratio Input Method
  ,                                       !- Zone Humidification Design Supply Air Humidity Ratio {kgWater/kgDryAir}
  0.005;                                  !- Zone Humidification Design Supply Air Humidity Ratio Difference {kgWater/kgDryAir}

OS:ZoneHVAC:EquipmentList,
  {d23a58b0-4384-49e4-bebc-f59ef7a0528f}, !- Handle
  Zone HVAC Equipment List 2,             !- Name
  {ff66dcb7-a031-474a-9c60-733e13bbae62}; !- Thermal Zone

OS:Surface,
  {b6d3f3c2-1205-49ef-afc2-61255ad76436}, !- Handle
  Perimeter_ZN_2_envelope_0,              !- Name
  Wall,                                   !- Surface Type
  {6970eec2-c84d-4b23-b01e-b7dbce206e47}, !- Construction Name
  {e4d53ce0-b59e-4509-bc41-587071dd603f}, !- Space Name
  Outdoors,                               !- Outside Boundary Condition
  ,                                       !- Outside Boundary Condition Object
  SunExposed,                             !- Sun Exposure
  WindExposed,                            !- Wind Exposure
  ,                                       !- View Factor to Ground
  ,                                       !- Number of Vertices
  22.69, 13.46, -0.1,                     !- X,Y,Z Vertex 1 {m}
  22.69, 5, -0.1,                         !- X,Y,Z Vertex 2 {m}
  22.69, 5, 3.05795,                      !- X,Y,Z Vertex 3 {m}
  22.69, 13.46, 3.05795;                  !- X,Y,Z Vertex 4 {m}

OS:Surface,
  {04c8e465-325b-49ab-bdcf-1b0fa410a08e}, !- Handle
  Perimeter_ZN_2_envelope_1,              !- Name
  Wall,                                   !- Surface Type
  {6970eec2-c84d-4b23-b01e-b7dbce206e47}, !- Construction Name
  {e4d53ce0-b59e-4509-bc41-587071dd603f}, !- Space Name
  Outdoors,                               !- Outside Boundary Condition
  ,                                       !- Outside Boundary Condition Object