
OS:Version,
  {818d8799-0e98-41c2-8fe9-3e540174332e}, !- Handle
  3.7.0;                                  !- Version Identifier

OS:Site,
  {a442973a-841c-4859-9e58-b813161f9ba1}, !- Handle
  trial (15-04:19-04)  (15-04:19-04),     !- Name
  1.37,                                   !- Latitude {deg}
  103.92,                                 !- Longitude {deg}
  7,                                      !- Time Zone {hr}
  32,                                     !- Elevation {m}
  Suburbs;                                !- Terrain

OS:SimulationControl,
  {a544b2e2-ea58-4f97-bc0c-cd9a7cab7197}, !- Handle
  Yes,                                    !- Do Zone Sizing Calculation
  Yes,                                    !- Do System Sizing Calculation
  Yes,                                    !- Do Plant Sizing Calculation
  No,                                     !- Run Simulation for Sizing Periods
  Yes,                                    !- Run Simulation for Weather File Run Periods
  0.04,                                   !- Loads Convergence Tolerance Value {W}
  0.4,                                    !- Temperature Convergence Tolerance Value {deltaC}
  FullExterior,                           !- Solar Distribution
  25,                                     !- Maximum Number of Warmup Days
  6,                                      !- Minimum Number of Warmup Days
  No;                                     !- Do HVAC Sizing Simulation for Sizing Periods

OS:Building,
  {f333e804-89dc-43fe-973b-5e05a4c568d7}, !- Handle
  Building 1,                             !- Name
  ,                                       !- Building Sector Type
  0,                                      !- North Axis {deg}
  ,                                       !- Nominal Floor to Floor Height {m}
  ,                                       !- Space Type Name
  ,                                       !- Default Construction Set Name
  ;                                       !- Default Schedule Set Name

OS:ShadowCalculation,
  {0a834d64-9d6a-4254-962a-68652a2151b1}, !- Handle
  PolygonClipping,                        !- Shading Calculation Method
  Periodic,                               !- Shading Calculation Update Frequency Method
  20,                                     !- Shading Calculation Update Frequency
  15000,                                  !- Maximum Figures in Shadow Overlap Calculations
  SutherlandHodgman,                      !- Polygon Clipping Algorithm
  512,                                    !- Pixel Counting Resolution
  SimpleSkyDiffuseModeling,               !- Sky Diffuse Modeling Algorithm
  No,                                     !- Output External Shading Calculation Results
  No,                                     !- Disable Self-Shading Within Shading Zone Groups
  No;                                     !- Disable Self-Shading From Shading Zone Groups to Other Zones

OS:HeatBalanceAlgorithm,
  {d72a06f8-cf77-400e-bdab-728f5e5df27e}, !- Handle
  ConductionTransferFunction,             !- Algorithm
  2000,                                   !- Surface Temperature Upper Limit {C}
  1e-08,                                  !- Minimum Surface Convection Heat Transfer Coefficient Value {W/m2-K}
  1000;                                   !- Maximum Surface Convection Heat Transfer Coefficient Value {W/m2-K}

OS:Timestep,
  {3798a81a-21fc-4a5c-90eb-7f5d82cab5c4}, !- Handle
  6;                                      !- Number of Timesteps per Hour

OS:ConvergenceLimits,
  {f5a4bc74-23f9-4993-b500-8020f807a93b}, !- Handle
  1,                                      !- Minimum System Timestep {minutes}
  25;                                     !- Maximum HVAC Iterations

OS:SizingPeriod:DesignDay,
  {798fe5a0-89a2-456b-87f5-ed09f929eeb9}, !- Handle
  Summer Design Day in trial (15-04:19-04) Jun, !- Name
  34.1,                                   !- Maximum Dry-Bulb Temperature {C}
  6.1,                                    !- Daily Dry-Bulb Temperature Range {deltaC}
  100941.2,                               !- Barometric Pressure {Pa}
  0,                                      !- Wind Speed {m/s}
  0,                                      !- Wind Direction {deg}
  0.98,                                   !- Sky Clearness
  No,                                     !- Rain Indicator
  No,                                     !- Snow Indicator
  15,                                     !- Day of Month
  6,                                      !- Month
  SummerDesignDay,                        !- Day Type
  No,                                     !- Daylight Saving Time Indicator
  WetBulb,                                !- Humidity Condition Type
  ,                                       !- Humidity Condition Day Schedule Name
  26.5,                                   !- Wetbulb or DewPoint at Maximum Dry-Bulb {C}
  ,                                       !- Humidity Ratio at Maximum Dry-Bulb {kgWater/kgDryAir}
  ,                                       !- Enthalpy at Maximum Dry-Bulb {J/kg}
  ,                                       !- Dry-Bulb Temperature Range Modifier Type
  ,                                       !- Dry-Bulb Temperature Range Modifier Day Schedule Name
  ASHRAEClearSky;                         !- Solar Model Indicator

OS:SizingPeriod:DesignDay,
  {f977ab7b-a9d6-4f18-8db4-8295522f9d24}, !- Handle
  Winter Design Day in trial (15-04:19-04), !- Name
  23.8,                                   !- Maximum Dry-Bulb Temperature {C}
  0,                                      !- Daily Dry-Bulb Temperature Range {deltaC}
  100941.2,                               !- Barometric Pressure {Pa}
  1.9,                                    !- Wind Speed {m/s}
  10,                                     !- Wind Direction {deg}
  0,                                      !- Sky Clearness
  No,                                     !- Rain Indicator
  No,                                     !- Snow Indicator
  15,                                     !- Day of Month
  1,                                      !- Month
  WinterDesignDay,                        !- Day Type
  No,                                     !- Daylight Saving Time Indicator
  WetBulb,                                !- Humidity Condition Type
  ,                                       !- Humidity Condition Day Schedule Name
  23.8,                                   !- Wetbulb or DewPoint at Maximum Dry-Bulb {C}
  ,                                       !- Humidity Ratio at Maximum Dry-Bulb {kgWater/kgDryAir}
  ,                                       !- Enthalpy at Maximum Dry-Bulb {J/kg}
  ,                                       !- Dry-Bulb Temperature Range Modifier Type
  ,                                       !- Dry-Bulb Temperature Range Modifier Day Schedule Name
  ;                                       !- Solar Model Indicator

OS:RunPeriod,
  {71e1f170-d100-4628-a4c3-344407b1485d}, !- Handle
  trial (15-04:19-04),                    !- Name
  4,                                      !- Begin Month
  15,                                     !- Begin Day of Month
  4,                                      !- End Month
  19,                                     !- End Day of Month
  No,                                     !- Use Weather File Holidays and Special Days
  Yes,                                    !- Use Weather File Daylight Saving Period
  Yes,                                    !- Apply Weekend Holiday Rule
  Yes,                                    !- Use Weather File Rain Indicators
  Yes,                                    !- Use Weather File Snow Indicators
  ;                                       !- Number of Times Runperiod to be Repeated

OS:YearDescription,
  {58e2daef-3573-4fa6-b2de-016cb5552f4e}, !- Handle
  2024,                                   !- Calendar Year
  ,                                       !- Day of Week for Start Day
  ;                                       !- Is Leap Year

OS:RunPeriodControl:SpecialDays,
  {2ac2e26e-473b-4569-be31-a81abf60b734}, !- Handle
  New Years Day,                          !- Name
  1 Jan,                                  !- Start Date
  1,                                      !- Duration {days}
  Holiday;                                !- Special Day Type

OS:RunPeriodControl:SpecialDays,
  {02d867e0-2784-4b8c-b138-4a508e9b66a4}, !- Handle
  Christmas Day,                          !- Name
  25 Dec,                                 !- Start Date
  1,                                      !- Duration {days}
  Holiday;                                !- Special Day Type

OS:RunPeriodControl:SpecialDays,
  {eecbaada-3321-4597-b380-0b29e6c87959}, !- Handle
  Easter Monday,                          !- Name
  2nd Monday in April,                    !- Start Date
  1,                                      !- Duration {days}
  Holiday;                                !- Special Day Type

OS:RunPeriodControl:SpecialDays,
  {b3ab9215-30d5-451c-a8a3-a4aae33a3c5d}, !- Handle
  Easter Sunday,                          !- Name
  1st Sunday in April,                    !- Start Date
  1,                                      !- Duration {days}
  Holiday;                                !- Special Day Type

OS:ScheduleTypeLimits,
  {f56e976a-bef1-4966-9b88-d90234f14b36}, !- Handle
  Schedule Type Limits 1;                 !- Name

OS:ScheduleTypeLimits,
  {871da2e9-8875-4d04-970c-cbc8821760b1}, !- Handle
  Fraction,                               !- Name
  0,                                      !- Lower Limit Value
  1,                                      !- Upper Limit Value
  CONTINUOUS;                             !- Numeric Type

OS:ScheduleTypeLimits,
  {95b6c8fd-92a8-47c4-829c-a8d2b4bf5cb9}, !- Handle
  Temperature,                            !- Name
  -60,                                    !- Lower Limit Value
  200,                                    !- Upper Limit Value
  CONTINUOUS,                             !- Numeric Type
  Temperature;                            !- Unit Type

OS:ScheduleTypeLimits,
  {7f385453-5321-4ff6-a5af-fea74b8d5905}, !- Handle
  Control Type,                           !- Name
  0,                                      !- Lower Limit Value
  4,                                      !- Upper Limit Value
  DISCRETE,                               !- Numeric Type
  ControlMode;                            !- Unit Type

OS:ScheduleTypeLimits,
  {58d5b2bf-062d-4a46-9dae-898dc151aa17}, !- Handle
  On/Off,                                 !- Name
  0,                                      !- Lower Limit Value
  1,                                      !- Upper Limit Value
  DISCRETE,                               !- Numeric Type
  Availability;                           !- Unit Type

OS:Schedule:Day,
  {0f0b20dd-c7ae-40dd-9d9d-40824a3ec1a2}, !- Handle
  0,                                      !- Name
  ,                                       !- Schedule Type Limits Name
  ,                                       !- Interpolate to Timestep
  1,                                      !- Hour 1
  0,                                      !- Minute 1
  0,                                      !- Value Until Time 1
  2,                                      !- Hour 2
  0,                                      !- Minute 2
  0,                                      !- Value Until Time 2
  3,                                      !- Hour 3
  0,                                      !- Minute 3
  0,                                      !- Value Until Time 3
  4,                                      !- Hour 4
  0,                                      !- Minute 4
  0,                                      !- Value Until Time 4
  5,                                      !- Hour 5
  0,                                      !- Minute 5
  0,                                      !- Value Until Time 5
  6,                                      !- Hour 6
  0,                                      !- Minute 6
  0,                                      !- Value Until Time 6
  7,                                      !- Hour 7
  0,                                      !- Minute 7
  0,                                      !- Value Until Time 7
  8,                                      !- Hour 8
  0,                                      !- Minute 8
  0,                                      !- Value Until Time 8
  9,                                      !- Hour 9
  0,                                      !- Minute 9
  0,                                      !- Value Until Time 9
  10,                                     !- Hour 10
  0,                                      !- Minute 10
  0,                                      !- Value Until Time 10
  11,                                     !- Hour 11
  0,                                      !- Minute 11
  0,                                      !- Value Until Time 11
  12,                                     !- Hour 12
  0,                                      !- Minute 12
  0,                                      !- Value Until Time 12
  13,                                     !- Hour 13
  0,                                      !- Minute 13
  0,                                      !- Value Until Time 13
  14,                                     !- Hour 14
  0,                                      !- Minute 14
  0,                                      !- Value Until Time 14
  15,                                     !- Hour 15
  0,                                      !- Minute 15
  0,                                      !- Value Until Time 15
  16,                                     !- Hour 16
  0,                                      !- Minute 16
  0,                                      !- Value Until Time 16
  17,                                     !- Hour 17
  0,                                      !- Minute 17
  0,                                      !- Value Until Time 17
  18,                                     !- Hour 18
  0,                                      !- Minute 18
  0,                                      !- Value Until Time 18
  19,                                     !- Hour 19
  0,                                      !- Minute 19
  0,                                      !- Value Until Time 19
  20,                                     !- Hour 20
  0,                                      !- Minute 20
  0,                                      !- Value Until Time 20
  21,                                     !- Hour 21
  0,                                      !- Minute 21
  0,                                      !- Value Until Time 21
  22,                                     !- Hour 22
  0,                                      !- Minute 22
  0,                                      !- Value Until Time 22
  23,                                     !- Hour 23
  0,                                      !- Minute 23
  0,                                      !- Value Until Time 23
  24,                                     !- Hour 24
  0,                                      !- Minute 24
  0;                                      !- Value Until Time 24

OS:ScheduleTypeLimits,
  {e93e0c17-abb6-468d-aada-19a160b029a3}, !- Handle
  Schedule Type Limits 2;                 !- Name

OS:Schedule:Day,
  {0fbc7c8f-ef00-46b2-a128-b1298a81e6c1}, !- Handle
  50,                                     !- Name
  ,                                       !- Schedule Type Limits Name
  ,                                       !- Interpolate to Timestep
  1,                                      !- Hour 1
  0,                                      !- Minute 1
  50,                                     !- Value Until Time 1
  2,                                      !- Hour 2
  0,                                      !- Minute 2
  50,                                     !- Value Until Time 2
  3,                                      !- Hour 3
  0,                                      !- Minute 3
  50,                                     !- Value Until Time 3
  4,                                      !- Hour 4
  0,                                      !- Minute 4
  50,                                     !- Value Until Time 4
  5,                                      !- Hour 5
  0,                                      !- Minute 5
  50,                                     !- Value Until Time 5
  6,                                      !- Hour 6
  0,                                      !- Minute 6
  50,                                     !- Value Until Time 6
  7,                                      !- Hour 7
  0,                                      !- Minute 7
  50,                                     !- Value Until Time 7
  8,                                      !- Hour 8
  0,                                      !- Minute 8
  50,                                     !- Value Until Time 8
  9,                                      !- Hour 9
  0,                                      !- Minute 9
  50,                                     !- Value Until Time 9
  10,                                     !- Hour 10
  0,                                      !- Minute 10
  50,                                     !- Value Until Time 10
  11,                                     !- Hour 11
  0,                                      !- Minute 11
  50,                                     !- Value Until Time 11
  12,                                     !- Hour 12
  0,                                      !- Minute 12
  50,                                     !- Value Until Time 12
  13,                                     !- Hour 13
  0,                                      !- Minute 13
  50,                                     !- Value Until Time 13
  14,                                     !- Hour 14
  0,                                      !- Minute 14
  50,                                     !- Value Until Time 14
  15,                                     !- Hour 15
  0,                                      !- Minute 15
  50,                                     !- Value Until Time 15
  16,                                     !- Hour 16
  0,                                      !- Minute 16
  50,                                     !- Value Until Time 16
  17,                                     !- Hour 17
  0,                                      !- Minute 17
  50,                                     !- Value Until Time 17
  18,                                     !- Hour 18
  0,                                      !- Minute 18
  50,                                     !- Value Until Time 18
  19,                                     !- Hour 19
  0,                                      !- Minute 19
  50,                                     !- Value Until Time 19
  20,                                     !- Hour 20
  0,                                      !- Minute 20
  50,                                     !- Value Until Time 20
  21,                                     !- Hour 21
  0,                                      !- Minute 21
  50,                                     !- Value Until Time 21
  22,                                     !- Hour 22
  0,                                      !- Minute 22
  50,                                     !- Value Until Time 22
  23,                                     !- Hour 23
  0,                                      !- Minute 23
  50,                                     !- Value Until Time 23
  24,                                     !- Hour 24
  0,                                      !- Minute 24
  50;                                     !- Value Until Time 24

OS:ScheduleTypeLimits,
  {9ba5e241-ef51-4ff7-9f4d-461d32cf6f60}, !- Handle
  Schedule Type Limits 3;                 !- Name

OS:Schedule:Day,
  {bbf9f37e-c635-484a-a95d-551277d4c8b9}, !- Handle
  Off,                                    !- Name
  {871da2e9-8875-4d04-970c-cbc8821760b1}, !- Schedule Type Limits Name
  ,                                       !- Interpolate to Timestep
  1,                                      !- Hour 1
  0,                                      !- Minute 1
  0,                                      !- Value Until Time 1
  2,                                      !- Hour 2
  0,                                      !- Minute 2
  0,                                      !- Value Until Time 2
  3,                                      !- Hour 3
  0,                                      !- Minute 3
  0,                                      !- Value Until Time 3
  4,                                      !- Hour 4
  0,                                      !- Minute 4
  0,                                      !- Value Until Time 4
  5,                                      !- Hour 5
  0,                                      !- Minute 5
  0,                                      !- Value Until Time 5
  6,                                      !- Hour 6
  0,                                      !- Minute 6
  0,                                      !- Value Until Time 6
  7,                                      !- Hour 7
  0,                                      !- Minute 7
  0,                                      !- Value Until Time 7
  8,                                      !- Hour 8
  0,                                      !- Minute 8
  0,                                      !- Value Until Time 8
  9,                                      !- Hour 9
  0,                                      !- Minute 9
  0,                                      !- Value Until Time 9
  10,                                     !- Hour 10
  0,                                      !- Minute 10
  0,                                      !- Value Until Time 10
  11,                                     !- Hour 11
  0,                                      !- Minute 11
  0,                                      !- Value Until Time 11
  12,                                     !- Hour 12
  0,                                      !- Minute 12
  0,                                      !- Value Until Time 12
  13,                                     !- Hour 13
  0,                                      !- Minute 13
  0,                                      !- Value Until Time 13
  14,                                     !- Hour 14
  0,                                      !- Minute 14
  0,                                      !- Value Until Time 14
  15,                                     !- Hour 15
  0,                                      !- Minute 15
  0,                                      !- Value Until Time 15
  16,                                     !- Hour 16
  0,                                      !- Minute 16
  0,                                      !- Value Until Time 16
  17,                                     !- Hour 17
  0,                                      !- Minute 17
  0,                                      !- Value Until Time 17
  18,                                     !- Hour 18
  0,                                      !- Minute 18
  0,                                      !- Value Until Time 18
  19,                                     !- Hour 19
  0,                                      !- Minute 19
  0,                                      !- Value Until Time 19
  20,                                     !- Hour 20
  0,                                      !- Minute 20
  0,                                      !- Value Until Time 20
  21,                                     !- Hour 21
  0,                                      !- Minute 21
  0,                                      !- Value Until Time 21
  22,                                     !- Hour 22
  0,                                      !- Minute 22
  0,                                      !- Value Until Time 22
  23,                                     !- Hour 23
  0,                                      !- Minute 23
  0,                                      !- Value Until Time 23
  24,                                     !- Hour 24
  0,                                      !- Minute 24
  0;                                      !- Value Until Time 24

OS:Schedule:Day,
  {d07227fd-7945-4462-a91c-ad1791c3c6f7}, !- Handle
  Summer Control Type Day Sch,            !- Name
  {7f385453-5321-4ff6-a5af-fea74b8d5905}, !- Schedule Type Limits Name
  ,                                       !- Interpolate to Timestep
  1,                                      !- Hour 1
  0,                                      !- Minute 1
  4,                                      !- Value Until Time 1
  2,                                      !- Hour 2
  0,                                      !- Minute 2
  4,                                      !- Value Until Time 2
  3,                                      !- Hour 3
  0,                                      !- Minute 3
  4,                                      !- Value Until Time 3
  4,                                      !- Hour 4
  0,                                      !- Minute 4
  4,                                      !- Value Until Time 4
  5,                                      !- Hour 5
  0,                                      !- Minute 5
  4,                                      !- Value Until Time 5
  6,                                      !- Hour 6
  0,                                      !- Minute 6
  4,                                      !- Value Until Time 6
  7,                                      !- Hour 7
  0,                                      !- Minute 7
  4,                                      !- Value Until Time 7
  8,                                      !- Hour 8
  0,                                      !- Minute 8
  4,                                      !- Value Until Time 8
  9,                                      !- Hour 9
  0,                                      !- Minute 9
  4,                                      !- Value Until Time 9
  10,                                     !- Hour 10
  0,                                      !- Minute 10
  4,                                      !- Value Until Time 10
  11,                                     !- Hour 11
  0,                                      !- Minute 11
  4,                                      !- Value Until Time 11
  12,                                     !- Hour 12
  0,                                      !- Minute 12
  4,                                      !- Value Until Time 12
  13,                                     !- Hour 13
  0,                                      !- Minute 13
  4,                                      !- Value Until Time 13
  14,                                     !- Hour 14
  0,                                      !- Minute 14
  4,                                      !- Value Until Time 14
  15,                                     !- Hour 15
  0,                                      !- Minute 15
  4,                                      !- Value Until Time 15
  16,                                     !- Hour 16
  0,                                      !- Minute 16
  4,                                      !- Value Until Time 16
  17,                                     !- Hour 17
  0,                                      !- Minute 17
  4,                                      !- Value Until Time 17
  18,                                     !- Hour 18
  0,                                      !- Minute 18
  4,                                      !- Value Until Time 18
  19,                                     !- Hour 19
  0,                                      !- Minute 19
  4,                                      !- Value Until Time 19
  20,                                     !- Hour 20
  0,                                      !- Minute 20
  4,                                      !- Value Until Time 20
  21,                                     !- Hour 21
  0,                                      !- Minute 21
  4,                                      !- Value Until Time 21
  22,                                     !- Hour 22
  0,                                      !- Minute 22
  4,                                      !- Value Until Time 22
  23,                                     !- Hour 23
  0,                                      !- Minute 23
  4,                                      !- Value Until Time 23
  24,                                     !- Hour 24
  0,                                      !- Minute 24
  4;                                      !- Value Until Time 24

OS:Schedule:Day,
  {b7426edd-db0e-448c-b8a7-88ac7f84cb6c}, !- Handle
  Winter Control Type Day Sch,            !- Name
  {7f385453-5321-4ff6-a5af-fea74b8d5905}, !- Schedule Type Limits Name
  ,                                       !- Interpolate to Timestep
  1,                                      !- Hour 1
  0,                                      !- Minute 1
  4,                                      !- Value Until Time 1
  2,                                      !- Hour 2
  0,                                      !- Minute 2
  4,                                      !- Value Until Time 2
  3,                                      !- Hour 3
  0,                                      !- Minute 3
  4,                                      !- Value Until Time 3
  4,                                      !- Hour 4
  0,                                      !- Minute 4
  4,                                      !- Value Until Time 4
  5,                                      !- Hour 5
  0,                                      !- Minute 5
  4,                                      !- Value Until Time 5
  6,                                      !- Hour 6
  0,                                      !- Minute 6
  4,                                      !- Value Until Time 6
  7,                                      !- Hour 7
  0,                                      !- Minute 7