
OS:Version,
  {e1147036-12f5-4d8a-a3be-c17f7f89f957}, !- Handle
  3.7.0;                                  !- Version Identifier

OS:WeatherFile,
  {d15c2e42-6260-47ea-bf5e-c1c064ce5364}, !- Handle
  SINGAPORE,                              !- City
  -,                                      !- State Province Region
  SGP,                                    !- Country
  IWEC Data,                              !- Data Source
  486980,                                 !- WMO Number
  1.37,                                   !- Latitude {deg}
  103.98,                                 !- Longitude {deg}
  8,                                      !- Time Zone {hr}
  16,                                     !- Elevation {m}
  /home/chenkianwee/kianwee_work/code_workspace/10.ifc2osmod/ifc2osmod/data/epw/SGP_Singapore.486980_IWEC/SGP_Singapore.486980_IWEC.epw, !- Url
  A1E22486,                               !- Checksum
  ,                                       !- Start Date Actual Year
  Sunday;                                 !- Start Day of Week

OS:Site,
  {85cff4c7-a53a-44c1-82a3-5799acceedbe}, !- Handle
  SINGAPORE_-_SGP,                        !- Name
  1.37,                                   !- Latitude {deg}
  103.98,                                 !- Longitude {deg}
  8,                                      !- Time Zone {hr}
  16,                                     !- Elevation {m}
  ;                                       !- Terrain

OS:Site:GroundTemperature:BuildingSurface,
  {43d98184-b528-4bbb-8b9b-baf55b1b705b}, !- Handle
  27.55,                                  !- January Ground Temperature {C}
  28.03,                                  !- February Ground Temperature {C}
  28.32,                                  !- March Ground Temperature {C}
  28.42,                                  !- April Ground Temperature {C}
  28.26,                                  !- May Ground Temperature {C}
  27.88,                                  !- June Ground Temperature {C}
  27.4,                                   !- July Ground Temperature {C}
  26.92,                                  !- August Ground Temperature {C}
  26.59,                                  !- September Ground Temperature {C}
  26.51,                                  !- October Ground Temperature {C}
  26.68,                                  !- November Ground Temperature {C}
  27.05;                                  !- December Ground Temperature {C}

OS:Site:WaterMainsTemperature,
  {0cfd71ef-c2a6-46f1-8e54-6b8b4988fd75}, !- Handle
  Correlation,                            !- Calculation Method
  ,                                       !- Temperature Schedule Name
  27.4638926940639,                       !- Annual Average Outdoor Air Temperature {C}
  2.12050504824542;                       !- Maximum Difference In Monthly Average Outdoor Air Temperatures {deltaC}

OS:SizingPeriod:DesignDay,
  {10e3abd9-8506-438f-b5cb-a317fd2c089e}, !- Handle
  SINGAPORE Ann Htg 99.6% Condns DB,      !- Name
  23,                                     !- Maximum Dry-Bulb Temperature {C}
  0,                                      !- Daily Dry-Bulb Temperature Range {deltaC}
  101133,                                 !- Barometric Pressure {Pa}
  2,                                      !- Wind Speed {m/s}
  320,                                    !- Wind Direction {deg}
  0,                                      !- Sky Clearness
  No,                                     !- Rain Indicator
  No,                                     !- Snow Indicator
  21,                                     !- Day of Month
  12,                                     !- Month
  WinterDesignDay,                        !- Day Type
  No,                                     !- Daylight Saving Time Indicator
  Wetbulb,                                !- Humidity Condition Type
  ,                                       !- Humidity Condition Day Schedule Name
  23,                                     !- Wetbulb or DewPoint at Maximum Dry-Bulb {C}
  ,                                       !- Humidity Ratio at Maximum Dry-Bulb {kgWater/kgDryAir}
  ,                                       !- Enthalpy at Maximum Dry-Bulb {J/kg}
  DefaultMultipliers,                     !- Dry-Bulb Temperature Range Modifier Type
  ,                                       !- Dry-Bulb Temperature Range Modifier Day Schedule Name
  ASHRAEClearSky;                         !- Solar Model Indicator

OS:SizingPeriod:DesignDay,
  {d2e30cb8-29a1-4463-a766-a9a609e8993e}, !- Handle
  SINGAPORE Ann Clg .4% Condns DB=>MWB,   !- Name
  33.2,                                   !- Maximum Dry-Bulb Temperature {C}
  5.5,                                    !- Daily Dry-Bulb Temperature Range {deltaC}
  101133,                                 !- Barometric Pressure {Pa}
  4.1,                                    !- Wind Speed {m/s}
  30,                                     !- Wind Direction {deg}
  ,                                       !- Sky Clearness
  No,                                     !- Rain Indicator
  No,                                     !- Snow Indicator
  21,                                     !- Day of Month
  6,                                      !- Month
  SummerDesignDay,                        !- Day Type
  No,                                     !- Daylight Saving Time Indicator
  Wetbulb,                                !- Humidity Condition Type
  ,                                       !- Humidity Condition Day Schedule Name
  26.4,                                   !- Wetbulb or DewPoint at Maximum Dry-Bulb {C}
  ,                                       !- Humidity Ratio at Maximum Dry-Bulb {kgWater/kgDryAir}
  ,                                       !- Enthalpy at Maximum Dry-Bulb {J/kg}
  DefaultMultipliers,                     !- Dry-Bulb Temperature Range Modifier Type
  ,                                       !- Dry-Bulb Temperature Range Modifier Day Schedule Name
  ASHRAETau,                              !- Solar Model Indicator
  ,                                       !- Beam Solar Day Schedule Name
  ,                                       !- Diffuse Solar Day Schedule Name
  0.494,                                  !- ASHRAE Clear Sky Optical Depth for Beam Irradiance {dimensionless}
  2.03;                                   !- ASHRAE Clear Sky Optical Depth for Diffuse Irradiance {dimensionless}

OS:BuildingStory,
  {1fcb9e8b-084a-4e58-8e1d-be6fbe75b598}, !- Handle
  Mezzanine Level,                        !- Name
  ,                                       !- Nominal Z Coordinate {m}
  ,                                       !- Nominal Floor to Floor Height {m}
  ,                                       !- Default Construction Set Name
  ,                                       !- Default Schedule Set Name
  ;                                       !- Group Rendering Name

OS:Material:NoMass,
  {307ce351-3115-4082-aa1e-50771822cbd1}, !- Handle
  Material No Mass 1,                     !- Name
  Rough,                                  !- Roughness
  0.36,                                   !- Thermal Resistance {m2-K/W}
  0.9,                                    !- Thermal Absorptance
  0.7,                                    !- Solar Absorptance
  0.7;                                    !- Visible Absorptance

OS:Material,
  {e81258b2-5795-4c4d-817e-3a44d9172441}, !- Handle
  Material 1,                             !- Name
  Smooth,                                 !- Roughness
  0.009,                                  !- Thickness {m}
  0.58,                                   !- Conductivity {W/m-K}
  1900,                                   !- Density {kg/m3}
  1400;                                   !- Specific Heat {J/kg-K}

OS:Construction,
  {19495310-91fd-4276-9ed4-c762de8d82de}, !- Handle
  wall_construction,                      !- Name
  ,                                       !- Surface Rendering Name
  {307ce351-3115-4082-aa1e-50771822cbd1}, !- Layer 1
  {e81258b2-5795-4c4d-817e-3a44d9172441}; !- Layer 2

OS:WindowMaterial:SimpleGlazingSystem,
  {2df42d3f-389b-4000-ad67-64199bc3e9ae}, !- Handle
  Window Material Simple Glazing System 1, !- Name
  1.4,                                    !- U-Factor {W/m2-K}
  0.62,                                   !- Solar Heat Gain Coefficient
  0.78;                                   !- Visible Transmittance

OS:Construction,
  {7c3924da-9404-4d1d-b84c-568fe6abe963}, !- Handle
  win_construction,                       !- Name
  ,                                       !- Surface Rendering Name
  {2df42d3f-389b-4000-ad67-64199bc3e9ae}; !- Layer 1

OS:ThermalZone,
  {9dce7edd-68e9-46a8-b10e-e77cb663d257}, !- Handle
  Thermal Zone 1,                         !- Name
  ,                                       !- Multiplier
  ,                                       !- Ceiling Height {m}
  ,                                       !- Volume {m3}
  ,                                       !- Floor Area {m2}
  ,                                       !- Zone Inside Convection Algorithm
  ,                                       !- Zone Outside Convection Algorithm
  ,                                       !- Zone Conditioning Equipment List Name
  {1086ecd5-2cef-413f-9bb4-f5383a29f03c}, !- Zone Air Inlet Port List
  {1c01a60a-f539-4ec6-9ffc-9850e884425a}, !- Zone Air Exhaust Port List
  {62bf4a51-491d-4b76-8b16-ba5e78bdb36b}, !- Zone Air Node Name
  {7cbaac90-102a-45a4-b9a2-a3eafde7c078}, !- Zone Return Air Port List
  ,                                       !- Primary Daylighting Control Name
  ,                                       !- Fraction of Zone Controlled by Primary Daylighting Control
  ,                                       !- Secondary Daylighting Control Name
  ,                                       !- Fraction of Zone Controlled by Secondary Daylighting Control
  ,                                       !- Illuminance Map Name
  ,                                       !- Group Rendering Name
  {30c3ce7d-f473-4628-85a5-0b73332823ad}, !- Thermostat Name
  No;                                     !- Use Ideal Air Loads

OS:Node,
  {1217c1ed-e7ec-4f78-819d-902ffc638d38}, !- Handle
  Node 1,                                 !- Name
  {62bf4a51-491d-4b76-8b16-ba5e78bdb36b}, !- Inlet Port
  ;                                       !- Outlet Port

OS:Connection,
  {62bf4a51-491d-4b76-8b16-ba5e78bdb36b}, !- Handle
  {9dce7edd-68e9-46a8-b10e-e77cb663d257}, !- Source Object
  11,                                     !- Outlet Port
  {1217c1ed-e7ec-4f78-819d-902ffc638d38}, !- Target Object
  2;                                      !- Inlet Port

OS:PortList,
  {1086ecd5-2cef-413f-9bb4-f5383a29f03c}, !- Handle
  {9dce7edd-68e9-46a8-b10e-e77cb663d257}, !- HVAC Component
  {80a55fe6-f40a-43d0-a508-7deaa6daae3e}; !- Port 1

OS:PortList,
  {1c01a60a-f539-4ec6-9ffc-9850e884425a}, !- Handle
  {9dce7edd-68e9-46a8-b10e-e77cb663d257}, !- HVAC Component
  {3ea83182-b43a-42a9-86d4-c3d2e5fcbf49}; !- Port 1

OS:PortList,
  {7cbaac90-102a-45a4-b9a2-a3eafde7c078}, !- Handle
  {9dce7edd-68e9-46a8-b10e-e77cb663d257}; !- HVAC Component

OS:Sizing:Zone,
  {a9d4619d-d844-4fda-8edb-9c053a9e28d4}, !- Handle
  {9dce7edd-68e9-46a8-b10e-e77cb663d257}, !- Zone or ZoneList Name
  SupplyAirTemperature,                   !- Zone Cooling Design Supply Air Temperature Input Method
  13.8888888888889,                       !- Zone Cooling Design Supply Air Temperature {C}
  11.11,                                  !- Zone Cooling Design Supply Air Temperature Difference {deltaC}
  SupplyAirTemperature,                   !- Zone Heating Design Supply Air Temperature Input Method
  50.0000000000001,                       !- Zone Heating Design Supply Air Temperature {C}
  11.11,                                  !- Zone Heating Design Supply Air Temperature Difference {deltaC}
  0.008,                                  !- Zone Cooling Design Supply Air Humidity Ratio {kg-H2O/kg-air}
  0.008,                                  !- Zone Heating Design Supply Air Humidity Ratio {kg-H2O/kg-air}
  ,                                       !- Zone Heating Sizing Factor
  ,                                       !- Zone Cooling Sizing Factor
  DesignDay,                              !- Cooling Design Air Flow Method
  ,                                       !- Cooling Design Air Flow Rate {m3/s}
  ,                                       !- Cooling Minimum Air Flow per Zone Floor Area {m3/s-m2}
  ,                                       !- Cooling Minimum Air Flow {m3/s}
  ,                                       !- Cooling Minimum Air Flow Fraction
  DesignDay,                              !- Heating Design Air Flow Method
  ,                                       !- Heating Design Air Flow Rate {m3/s}
  ,                                       !- Heating Maximum Air Flow per Zone Floor Area {m3/s-m2}
  ,                                       !- Heating Maximum Air Flow {m3/s}
  ,                                       !- Heating Maximum Air Flow Fraction
  No,                                     !- Account for Dedicated Outdoor Air System
  NeutralSupplyAir,                       !- Dedicated Outdoor Air System Control Strategy
  autosize,                               !- Dedicated Outdoor Air Low Setpoint Temperature for Design {C}
  autosize,                               !- Dedicated Outdoor Air High Setpoint Temperature for Design {C}
  Sensible Load Only No Latent Load,      !- Zone Load Sizing Method
  HumidityRatioDifference,                !- Zone Latent Cooling Design Supply Air Humidity Ratio Input Method
  ,                                       !- Zone Dehumidification Design Supply Air Humidity Ratio {kgWater/kgDryAir}
  0.005,                                  !- Zone Cooling Design Supply Air Humidity Ratio Difference {kgWater/kgDryAir}
  HumidityRatioDifference,                !- Zone Latent Heating Design Supply Air Humidity Ratio Input Method
  ,                                       !- Zone Humidification Design Supply Air Humidity Ratio {kgWater/kgDryAir}
  0.005;                                  !- Zone Humidification Design Supply Air Humidity Ratio Difference {kgWater/kgDryAir}

OS:ZoneHVAC:EquipmentList,
  {8ae4ce6a-a055-4c70-96da-70d08857412d}, !- Handle
  Zone HVAC Equipment List 1,             !- Name
  {9dce7edd-68e9-46a8-b10e-e77cb663d257}, !- Thermal Zone
  ,                                       !- Load Distribution Scheme
  {15588655-b639-4147-afc7-4f701ac50ebe}, !- Zone Equipment 1
  1,                                      !- Zone Equipment Cooling Sequence 1
  1,                                      !- Zone Equipment Heating or No-Load Sequence 1
  ,                                       !- Zone Equipment Sequential Cooling Fraction Schedule Name 1
  ;                                       !- Zone Equipment Sequential Heating Fraction Schedule Name 1

OS:Space,
  {300f4b2c-bf02-473b-8229-5edbc24aee01}, !- Handle
  Space,                                  !- Name
  ,                                       !- Space Type Name
  ,                                       !- Default Construction Set Name
  ,                                       !- Default Schedule Set Name
  ,                                       !- Direction of Relative North {deg}
  ,                                       !- X Origin {m}
  ,                                       !- Y Origin {m}
  ,                                       !- Z Origin {m}
  {1fcb9e8b-084a-4e58-8e1d-be6fbe75b598}, !- Building Story Name
  {9dce7edd-68e9-46a8-b10e-e77cb663d257}, !- Thermal Zone Name
  ,                                       !- Part of Total Floor Area
  {f135ce39-e85e-4d41-8478-7fee3d95a065}, !- Design Specification Outdoor Air Object Name
  ,                                       !- Building Unit Name
  ,                                       !- Volume {m3}
  ,                                       !- Ceiling Height {m}
  Autocalculate;                          !- Floor Area {m2}

OS:Surface,
  {73d016d1-2633-49eb-bba6-cbf92ec02989}, !- Handle
  Surface 1,                              !- Name
  Wall,                                   !- Surface Type
  {19495310-91fd-4276-9ed4-c762de8d82de}, !- Construction Name
  {300f4b2c-bf02-473b-8229-5edbc24aee01}, !- Space Name
  Outdoors,                               !- Outside Boundary Condition
  ,                                       !- Outside Boundary Condition Object
  SunExposed,                             !- Sun Exposure
  WindExposed,                            !- Wind Exposure
  ,                                       !- View Factor to Ground
  ,                                       !- Number of Vertices
  0.2, 2.8, 3,                            !- X,Y,Z Vertex 1 {m}
  0.2, 2.8, 0,                            !- X,Y,Z Vertex 2 {m}
  0.2, 0.2, 0,                            !- X,Y,Z Vertex 3 {m}
  0.2, 0.2, 3;                            !- X,Y,Z Vertex 4 {m}

OS:Surface,
  {32dd80be-da76-4182-91d7-ca20cd75adfc}, !- Handle
  Surface 2,                              !- Name
  Wall,                                   !- Surface Type
  {19495310-91fd-4276-9ed4-c762de8d82de}, !- Construction Name
  {300f4b2c-bf02-473b-8229-5edbc24aee01}, !- Space Name
  Outdoors,                               !- Outside Boundary Condition
  ,                                       !- Outside Boundary Condition Object
  SunExposed,                             !- Sun Exposure
  WindExposed,                            !- Wind Exposure
  ,                                       !- View Factor to Ground
  ,                                       !- Number of Vertices
  0.2, 0.2, 3,                            !- X,Y,Z Vertex 1 {m}
  0.2, 0.2, 0,                            !- X,Y,Z Vertex 2 {m}
  3.8, 0.2, 0,                            !- X,Y,Z Vertex 3 {m}
  3.8, 0.2, 3;                            !- X,Y,Z Vertex 4 {m}

OS:SubSurface,
  {f8241d62-afac-45b3-a1da-ebf5ae65802a}, !- Handle
  Sub Surface 1,                          !- Name
  FixedWindow,                            !- Sub Surface Type
  {7c3924da-9404-4d1d-b84c-568fe6abe963}, !- Construction Name
  {32dd80be-da76-4182-91d7-ca20cd75adfc}, !- Surface Name
  ,                                       !- Outside Boundary Condition Object
  ,                                       !- View Factor to Ground
  ,                                       !- Frame and Divider Name
  ,                                       !- Multiplier
  ,                                       !- Number of Vertices
  0.6, 0.2, 1,                            !- X,Y,Z Vertex 1 {m}
  1.6, 0.2, 1,                            !- X,Y,Z Vertex 2 {m}
  1.6, 0.2, 2,                            !- X,Y,Z Vertex 3 {m}
  0.6, 0.2, 2;                            !- X,Y,Z Vertex 4 {m}

OS:Surface,
  {14dabedb-f2ce-4437-9e6e-28811149b09a}, !- Handle
  Surface 3,                              !- Name
  Floor,                                  !- Surface Type
  {19495310-91fd-4276-9ed4-c762de8d82de}, !- Construction Name
  {300f4b2c-bf02-473b-8229-5edbc24aee01}, !- Space Name
  Ground,                                 !- Outside Boundary Condition
  ,                                       !- Outside Boundary Condition Object
  NoSun,                                  !- Sun Exposure
  NoWind,                                 !- Wind Exposure
  ,                                       !- View Factor to Ground
  ,                                       !- Number of Vertices
  3.8, 0.2, 0,                            !- X,Y,Z Vertex 1 {m}
  0.2, 0.2, 0,                            !- X,Y,Z Vertex 2 {m}
  0.2, 2.8, 0,                            !- X,Y,Z Vertex 3 {m}
  3.8, 2.8, 0;                            !- X,Y,Z Vertex 4 {m}

OS:Surface,
  {49dc9c2a-ec3f-4b85-82b5-6d8ed7d440da}, !- Handle
  Surface 4,                              !- Name
  RoofCeiling,                            !- Surface Type
  {19495310-91fd-4276-9ed4-c762de8d82de}, !- Construction Name
  {300f4b2c-bf02-473b-8229-5edbc24aee01}, !- Space Name
  Outdoors,                               !- Outside Boundary Condition
  ,                                       !- Outside Boundary Condition Object
  SunExposed,                             !- Sun Exposure
  WindExposed,                            !- Wind Exposure
  ,                                       !- View Factor to Ground
  ,                                       !- Number of Vertices
  0.2, 0.2, 3,                            !- X,Y,Z Vertex 1 {m}
  3.8, 0.2, 3,                            !- X,Y,Z Vertex 2 {m}
  3.8, 2.8, 3,                            !- X,Y,Z Vertex 3 {m}
  0.2, 2.8, 3;                            !- X,Y,Z Vertex 4 {m}

OS:Surface,
  {06d286c1-b147-4c60-88ab-f77ddda945f2}, !- Handle
  Surface 5,                              !- Name
  Wall,                                   !- Surface Type
  {19495310-91fd-4276-9ed4-c762de8d82de}, !- Construction Name
  {300f4b2c-bf02-473b-8229-5edbc24aee01}, !- Space Name
  Outdoors,                               !- Outside Boundary Condition
  ,                                       !- Outside Boundary Condition Object
  SunExposed,                             !- Sun Exposure
  WindExposed,                            !- Wind Exposure
  ,                                       !- View Factor to Ground
  ,                                       !- Number of Vertices
  3.8, 2.8, 3,                            !- X,Y,Z Vertex 1 {m}
  3.8, 2.8, 0,                            !- X,Y,Z Vertex 2 {m}
  0.2, 2.8, 0,                            !- X,Y,Z Vertex 3 {m}
  0.2, 2.8, 3;                            !- X,Y,Z Vertex 4 {m}

OS:Surface,
  {8f3086a3-0705-45bb-a83e-7dfad2bc041a}, !- Handle
  Surface 6,                              !- Name
  Wall,                                   !- Surface Type
  {19495310-91fd-4276-9ed4-c762de8d82de}, !- Construction Name
  {300f4b2c-bf02-473b-8229-5edbc24aee01}, !- Space Name
  Outdoors,                               !- Outside Boundary Condition
  ,                                       !- Outside Boundary Condition Object
  SunExposed,                             !- Sun Exposure
  WindExposed,                            !- Wind Exposure
  ,                                       !- View Factor to Ground
  ,                                       !- Number of Vertices
  3.8, 0.2, 3,                            !- X,Y,Z Vertex 1 {m}
  3.8, 0.2, 0,                            !- X,Y,Z Vertex 2 {m}
  3.8, 2.8, 0,                            !- X,Y,Z Vertex 3 {m}
  3.8, 2.8, 3;                            !- X,Y,Z Vertex 4 {m}

OS:ShadingSurfaceGroup,
  {3e5b967f-74ad-46a1-8c97-fca9ed8b22d6}, !- Handle
  Shading Surface Group 1,                !- Name
  Building;                               !- Shading Surface Type

OS:ScheduleTypeLimits,
  {54bdbf68-4bac-49a9-86f3-3cbc0e681e37}, !- Handle
  fractional,                             !- Name
  0,                                      !- Lower Limit Value
  1,                                      !- Upper Limit Value
  Continuous;                             !- Numeric Type

OS:ScheduleTypeLimits,
  {ea8ff65a-ee1c-4f91-8c02-d56a6a4fa9cc}, !- Handle
  temperature,                            !- Name
  -60,                                    !- Lower Limit Value
  200,                                    !- Upper Limit Value
  Continuous,                             !- Numeric Type
  Temperature;                            !- Unit Type

OS:ScheduleTypeLimits,
  {722bdb8b-22fb-48de-9cb1-93f59d509aec}, !- Handle
  activity,                               !- Name
  0,                                      !- Lower Limit Value
  ,                                       !- Upper Limit Value
  Continuous,                             !- Numeric Type
  ActivityLevel;                          !- Unit Type

OS:Schedule:Day,
  {05db5cc9-c4dd-4e3f-b6f2-7fb459e1d2f0}, !- Handle
  weekday occupancy,                      !- Name
  {54bdbf68-4bac-49a9-86f3-3cbc0e681e37}, !- Schedule Type Limits Name
  ,                                       !- Interpolate to Timestep
  9,                                      !- Hour 1
  0,                                      !- Minute 1
  0,                                      !- Value Until Time 1
  17,                                     !- Hour 2
  0,                                      !- Minute 2
  1,                                      !- Value Until Time 2
  24,                                     !- Hour 3
  0,                                      !- Minute 3
  0;                                      !- Value Until Time 3

OS:Schedule:Ruleset,
  {9aca0b76-ed4e-4921-bcfa-80b63230580d}, !- Handle
  occupancy schedule,                     !- Name
  {54bdbf68-4bac-49a9-86f3-3cbc0e681e37}, !- Schedule Type Limits Name
  {b40c2e50-409c-4420-aa2b-a47460cff102}; !- Default Day Schedule Name

OS:Schedule:Day,
  {b40c2e50-409c-4420-aa2b-a47460cff102}, !- Handle
  Schedule Day 1,                         !- Name
  {54bdbf68-4bac-49a9-86f3-3cbc0e681e37}, !- Schedule Type Limits Name
  ,                                       !- Interpolate to Timestep
  24,                                     !- Hour 1
  0,                                      !- Minute 1
  0;                                      !- Value Until Time 1

OS:Schedule:Rule,
  {fe094115-fbda-425f-a62c-afc254db6602}, !- Handle
  occupancy weekdays,                     !- Name
  {9aca0b76-ed4e-4921-bcfa-80b63230580d}, !- Schedule Ruleset Name
  0,                                      !- Rule Order
  {f7055c7c-6455-4ec6-8f6c-94b11239b0e0}, !- Day Schedule Name
  ,                                       !- Apply Sunday
  Yes,                                    !- Apply Monday
  Yes,                                    !- Apply Tuesday
  Yes,                                    !- Apply Wednesday
  Yes,                                    !- Apply Thursday
  Yes;                                    !- Apply Friday

OS:Schedule:Day,
  {f7055c7c-6455-4ec6-8f6c-94b11239b0e0}, !- Handle
  weekday occupancy 1,                    !- Name
  {54bdbf68-4bac-49a9-86f3-3cbc0e681e37}, !- Schedule Type Limits Name
  ,                                       !- Interpolate to Timestep
  9,                                      !- Hour 1
  0,                                      !- Minute 1
  0,                                      !- Value Until Time 1
  17,                                     !- Hour 2
  0,                                      !- Minute 2
  1,                                      !- Value Until Time 2
  24,                                     !- Hour 3
  0,                                      !- Minute 3
  0;                                      !- Value Until Time 3

OS:Schedule:Day,
  {40a123cb-39a0-45b5-a75d-7e57f6a5ae06}, !- Handle
  weekday activity,                       !- Name
  {722bdb8b-22fb-48de-9cb1-93f59d509aec}, !- Schedule Type Limits Name
  ,                                       !- Interpolate to Timestep
  24,                                     !- Hour 1
  0,                                      !- Minute 1
  70;                                     !- Value Until Time 1

OS:Schedule:Ruleset,
  {f39e1a68-93f0-4c4e-8edf-705ec114dd1c}, !- Handle
  activity schedule,                      !- Name
  {722bdb8b-22fb-48de-9cb1-93f59d509aec}, !- Schedule Type Limits Name
  {314fd1d2-de40-40ee-af84-3664bf89efbb}, !- Default Day Schedule Name
  {49c23cf8-c986-4228-8ee7-7a8c3103a49c}, !- Summer Design Day Schedule Name
  {39ac50ac-be39-4bdc-ba7a-5b5643fa9de0}, !- Winter Design Day Schedule Name
  {ba7d1713-3814-49be-8596-9df58901a479}, !- Holiday Schedule Name
  {a09b6937-0e9e-4b71-84fa-c188e0317519}, !- Custom Day 1 Schedule Name
  {46dc7668-87c1-43b0-88dc-d410359d6c62}; !- Custom Day 2 Schedule Name

OS:Schedule:Day,
  {314fd1d2-de40-40ee-af84-3664bf89efbb}, !- Handle
  Schedule Day 2,                         !- Name
  {722bdb8b-22fb-48de-9cb1-93f59d509aec}, !- Schedule Type Limits Name
  ,                                       !- Interpolate to Timestep
  24,                                     !- Hour 1
  0,                                      !- Minute 1
  0;                                      !- Value Until Time 1

OS:Schedule:Day,
  {49c23cf8-c986-4228-8ee7-7a8c3103a49c}, !- Handle
  weekday activity 1,                     !- Name
  {722bdb8b-22fb-48de-9cb1-93f59d509aec}, !- Schedule Type Limits Name
  ,                                       !- Interpolate to Timestep
  24,                                     !- Hour 1
  0,                                      !- Minute 1
  70;                                     !- Value Until Time 1

OS:Schedule:Day,
  {39ac50ac-be39-4bdc-ba7a-5b5643fa9de0}, !- Handle
  weekday activity 2,                     !- Name
  {722bdb8b-22fb-48de-9cb1-93f59d509aec}, !- Schedule Type Limits Name
  ,                                       !- Interpolate to Timestep
  24,                                     !- Hour 1
  0,                                      !- Minute 1
  70;                                     !- Value Until Time 1

OS:Schedule:Day,
  {ba7d1713-3814-49be-8596-9df58901a479}, !- Handle
  weekday activity 3,                     !- Name
  {722bdb8b-22fb-48de-9cb1-93f59d509aec}, !- Schedule Type Limits Name
  ,                                       !- Interpolate to Timestep
  24,                                     !- Hour 1
  0,                                      !- Minute 1
  70;                                     !- Value Until Time 1

OS:Schedule:Day,
  {a09b6937-0e9e-4b71-84fa-c188e0317519}, !- Handle
  weekday activity 4,                     !- Name
  {722bdb8b-22fb-48de-9cb1-93f59d509aec}, !- Schedule Type Limits Name
  ,                                       !- Interpolate to Timestep
  24,                                     !- Hour 1
  0,                                      !- Minute 1
  70;                                     !- Value Until Time 1

OS:Schedule:Day,