
OS:Version,
  {312184ed-d202-4da5-b1fb-c087ffe346cb}, !- Handle
  3.7.0;                                  !- Version Identifier

OS:Material,
  {01747c3c-6fe8-42e2-a33f-9b4d8e1e076e}, !- Handle
  Material 1,                             !- Name
  Smooth,                                 !- Roughness
  0.0254,                                 !- Thickness {m}
  0.72,                                   !- Conductivity {W/m-K}
  1856,                                   !- Density {kg/m3}
  840;                                    !- Specific Heat {J/kg-K}

OS:Material,
  {deca90c3-bf32-4d8b-a042-448e5088d169}, !- Handle
  Material 2,                             !- Name
  MediumSmooth,                           !- Roughness
  0.0159,                                 !- Thickness {m}
  0.16,                                   !- Conductivity {W/m-K}
  800,                                    !- Density {kg/m3}
  1090;                                   !- Specific Heat {J/kg-K}

OS:Material:NoMass,
  {2a02306e-1159-414b-a78d-89343ba2a57a}, !- Handle
  Material No Mass 1,                     !- Name
  MediumSmooth,                           !- Roughness
  1.06783369996193,                       !- Thermal Resistance {m2-K/W}
  0.9,                                    !- Thermal Absorptance
  0.7,                                    !- Solar Absorptance
  0.7;                                    !- Visible Absorptance

OS:Material,
  {08d93c8d-d941-46cb-83bc-109ee246d671}, !- Handle
  Material 3,                             !- Name
  MediumSmooth,                           !- Roughness
  0.0159,                                 !- Thickness {m}
  0.16,                                   !- Conductivity {W/m-K}
  800,                                    !- Density {kg/m3}
  1090;                                   !- Specific Heat {J/kg-K}

OS:Construction,
  {b94b3d59-f6a5-4741-9f8f-c86ee859f81d}, !- Handle
  res_ext_wall_grd,                       !- Name
  ,                                       !- Surface Rendering Name
  {01747c3c-6fe8-42e2-a33f-9b4d8e1e076e}, !- Layer 1
  {deca90c3-bf32-4d8b-a042-448e5088d169}, !- Layer 2
  {2a02306e-1159-414b-a78d-89343ba2a57a}, !- Layer 3
  {08d93c8d-d941-46cb-83bc-109ee246d671}; !- Layer 4

OS:Material,
  {cf72e863-249c-4109-b8f6-c6e8496d94e6}, !- Handle
  Material 4,                             !- Name
  MediumSmooth,                           !- Roughness
  0.0159,                                 !- Thickness {m}
  0.16,                                   !- Conductivity {W/m-K}
  800,                                    !- Density {kg/m3}
  1090;                                   !- Specific Heat {J/kg-K}

OS:Material:NoMass,
  {ed86133e-8a45-4ff4-8696-3ba0de98c0a3}, !- Handle
  Material No Mass 2,                     !- Name
  MediumSmooth,                           !- Roughness
  6.23478687961654,                       !- Thermal Resistance {m2-K/W}
  0.9,                                    !- Thermal Absorptance
  0.7,                                    !- Solar Absorptance
  0.7;                                    !- Visible Absorptance

OS:Construction,
  {eae2f0ec-228f-4086-9ffe-d4c19a47c545}, !- Handle
  res_roof_floor,                         !- Name
  ,                                       !- Surface Rendering Name
  {cf72e863-249c-4109-b8f6-c6e8496d94e6}, !- Layer 1
  {ed86133e-8a45-4ff4-8696-3ba0de98c0a3}; !- Layer 2

OS:Material,
  {e00ab1d5-950b-46d7-9d3e-9d4c88a58ed0}, !- Handle
  Material 5,                             !- Name
  Smooth,                                 !- Roughness
  0.0127,                                 !- Thickness {m}
  0.16,                                   !- Conductivity {W/m-K}
  800,                                    !- Density {kg/m3}
  1090;                                   !- Specific Heat {J/kg-K}

OS:Material,
  {a659d589-894d-4f21-bb52-125005bd1bee}, !- Handle
  Material 6,                             !- Name
  Smooth,                                 !- Roughness
  0.0127,                                 !- Thickness {m}
  0.16,                                   !- Conductivity {W/m-K}
  800,                                    !- Density {kg/m3}
  1090;                                   !- Specific Heat {J/kg-K}

OS:Construction,
  {a7a5b431-a5a0-445b-a241-de73b7960f47}, !- Handle
  int_wall,                               !- Name
  ,                                       !- Surface Rendering Name
  {e00ab1d5-950b-46d7-9d3e-9d4c88a58ed0}, !- Layer 1
  {a659d589-894d-4f21-bb52-125005bd1bee}; !- Layer 2

OS:WindowMaterial:SimpleGlazingSystem,
  {f975ebc5-c2ce-4662-9a96-d8a0c2124120}, !- Handle
  Window Material Simple Glazing System 1, !- Name
  2.86184304,                             !- U-Factor {W/m2-K}
  0.229,                                  !- Solar Heat Gain Coefficient
  0.2519;                                 !- Visible Transmittance

OS:Construction,
  {429d01ff-f015-4b40-8e68-deaa20721bc7}, !- Handle
  Window_U_0.504_SHGC_North_0.229,        !- Name
  ,                                       !- Surface Rendering Name
  {f975ebc5-c2ce-4662-9a96-d8a0c2124120}; !- Layer 1

OS:Material:NoMass,
  {2b3454b7-5d6a-4f2f-b278-b2bb9b62bab4}, !- Handle
  Material No Mass 3,                     !- Name
  MediumRough,                            !- Roughness
  0.475973498005059,                      !- Thermal Resistance {m2-K/W}
  0.9,                                    !- Thermal Absorptance
  0.7,                                    !- Solar Absorptance
  0.7;                                    !- Visible Absorptance

OS:Construction,
  {be6aa023-d219-46e5-80c8-48eb0684ccbd}, !- Handle
  Swinging Door_con,                      !- Name
  ,                                       !- Surface Rendering Name
  {2b3454b7-5d6a-4f2f-b278-b2bb9b62bab4}; !- Layer 1

OS:BuildingStory,
  {810aebb3-fdac-490c-be16-8093ec18d2da}, !- Handle
  Ground_level,                           !- Name
  ,                                       !- Nominal Z Coordinate {m}
  ,                                       !- Nominal Floor to Floor Height {m}
  ,                                       !- Default Construction Set Name
  ,                                       !- Default Schedule Set Name
  ;                                       !- Group Rendering Name

OS:BuildingStory,
  {a3fb61a6-8a80-4aab-b476-1b832a1c0f62}, !- Handle
  Attic_level,                            !- Name
  ,                                       !- Nominal Z Coordinate {m}
  ,                                       !- Nominal Floor to Floor Height {m}
  ,                                       !- Default Construction Set Name
  ,                                       !- Default Schedule Set Name
  ;                                       !- Group Rendering Name

OS:Space,
  {4c5de505-976b-4fbe-af06-55ad1cdfa497}, !- Handle
  Perimeter_ZN_4,                         !- Name
  ,                                       !- Space Type Name
  ,                                       !- Default Construction Set Name
  ,                                       !- Default Schedule Set Name
  ,                                       !- Direction of Relative North {deg}
  ,                                       !- X Origin {m}
  ,                                       !- Y Origin {m}
  ,                                       !- Z Origin {m}
  {810aebb3-fdac-490c-be16-8093ec18d2da}, !- Building Story Name
  {8c1cc0e6-12ca-4dae-a6bb-7313bb14529d}, !- Thermal Zone Name
  ,                                       !- Part of Total Floor Area
  {ccfe5329-a829-4ecc-9c82-4623bb4d378f}, !- Design Specification Outdoor Air Object Name
  ,                                       !- Building Unit Name
  ,                                       !- Volume {m3}
  ,                                       !- Ceiling Height {m}
  Autocalculate;                          !- Floor Area {m2}

OS:ThermalZone,
  {8c1cc0e6-12ca-4dae-a6bb-7313bb14529d}, !- Handle
  Perimeter_ZN_4_tzone,                   !- Name
  ,                                       !- Multiplier
  ,                                       !- Ceiling Height {m}
  ,                                       !- Volume {m3}
  ,                                       !- Floor Area {m2}
  ,                                       !- Zone Inside Convection Algorithm
  ,                                       !- Zone Outside Convection Algorithm
  ,                                       !- Zone Conditioning Equipment List Name
  {5447a0e9-18dd-479e-8c67-64c707e8a27c}, !- Zone Air Inlet Port List
  {273a22fa-9e31-4c18-a5a1-1c8e3d2a9a2b}, !- Zone Air Exhaust Port List
  {274b4a50-050a-4339-8fd4-c84e448a7ef2}, !- Zone Air Node Name
  {228ff2a0-ab43-4a5f-9073-bea561133af8}, !- Zone Return Air Port List
  ,                                       !- Primary Daylighting Control Name
  ,                                       !- Fraction of Zone Controlled by Primary Daylighting Control
  ,                                       !- Secondary Daylighting Control Name
  ,                                       !- Fraction of Zone Controlled by Secondary Daylighting Control
  ,                                       !- Illuminance Map Name
  ,                                       !- Group Rendering Name
  {7fa1d5cb-ca7e-465f-90dc-9de66a930290}, !- Thermostat Name
  No;                                     !- Use Ideal Air Loads

OS:Node,
  {0e8a7fe5-c5a2-4f67-9564-ecf7e4927a93}, !- Handle
  Node 1,                                 !- Name
  {274b4a50-050a-4339-8fd4-c84e448a7ef2}, !- Inlet Port
  ;                                       !- Outlet Port

OS:Connection,
  {274b4a50-050a-4339-8fd4-c84e448a7ef2}, !- Handle
  {8c1cc0e6-12ca-4dae-a6bb-7313bb14529d}, !- Source Object
  11,                                     !- Outlet Port
  {0e8a7fe5-c5a2-4f67-9564-ecf7e4927a93}, !- Target Object
  2;                                      !- Inlet Port

OS:PortList,
  {5447a0e9-18dd-479e-8c67-64c707e8a27c}, !- Handle
  {8c1cc0e6-12ca-4dae-a6bb-7313bb14529d}, !- HVAC Component
  {0a587a40-2a52-40d3-983f-0c9851321371}; !- Port 1

OS:PortList,
  {273a22fa-9e31-4c18-a5a1-1c8e3d2a9a2b}, !- Handle
  {8c1cc0e6-12ca-4dae-a6bb-7313bb14529d}, !- HVAC Component
  {aa3295b0-015b-4047-a49a-3d3c4a502fe2}; !- Port 1

OS:PortList,
  {228ff2a0-ab43-4a5f-9073-bea561133af8}, !- Handle
  {8c1cc0e6-12ca-4dae-a6bb-7313bb14529d}; !- HVAC Component

OS:Sizing:Zone,
  {c6969e32-1baf-4b1b-9888-db8a66a41235}, !- Handle
  {8c1cc0e6-12ca-4dae-a6bb-7313bb14529d}, !- Zone or ZoneList Name
  SupplyAirTemperature,                   !- Zone Cooling Design Supply Air Temperature Input Method
  14,                                     !- Zone Cooling Design Supply Air Temperature {C}
  11.11,                                  !- Zone Cooling Design Supply Air Temperature Difference {deltaC}
  SupplyAirTemperature,                   !- Zone Heating Design Supply Air Temperature Input Method
  40,                                     !- Zone Heating Design Supply Air Temperature {C}
  11.11,                                  !- Zone Heating Design Supply Air Temperature Difference {deltaC}
  0.0085,                                 !- Zone Cooling Design Supply Air Humidity Ratio {kg-H2O/kg-air}
  0.008,                                  !- Zone Heating Design Supply Air Humidity Ratio {kg-H2O/kg-air}
  ,                                       !- Zone Heating Sizing Factor
  ,                                       !- Zone Cooling Sizing Factor
  DesignDay,                              !- Cooling Design Air Flow Method
  ,                                       !- Cooling Design Air Flow Rate {m3/s}
  ,                                       !- Cooling Minimum Air Flow per Zone Floor Area {m3/s-m2}
  ,                                       !- Cooling Minimum Air Flow {m3/s}
  ,                                       !- Cooling Minimum Air Flow Fraction
  DesignDay,                              !- Heating Design Air Flow Method
  ,                                       !- Heating Design Air Flow Rate {m3/s}
  ,                                       !- Heating Maximum Air Flow per Zone Floor Area {m3/s-m2}
  ,                                       !- Heating Maximum Air Flow {m3/s}
  1,                                      !- Heating Maximum Air Flow Fraction
  No,                                     !- Account for Dedicated Outdoor Air System
  NeutralSupplyAir,                       !- Dedicated Outdoor Air System Control Strategy
  autosize,                               !- Dedicated Outdoor Air Low Setpoint Temperature for Design {C}
  autosize,                               !- Dedicated Outdoor Air High Setpoint Temperature for Design {C}
  Sensible Load Only No Latent Load,      !- Zone Load Sizing Method
  HumidityRatioDifference,                !- Zone Latent Cooling Design Supply Air Humidity Ratio Input Method
  ,                                       !- Zone Dehumidification Design Supply Air Humidity Ratio {kgWater/kgDryAir}
  0.005,                                  !- Zone Cooling Design Supply Air Humidity Ratio Difference {kgWater/kgDryAir}
  HumidityRatioDifference,                !- Zone Latent Heating Design Supply Air Humidity Ratio Input Method
  ,                                       !- Zone Humidification Design Supply Air Humidity Ratio {kgWater/kgDryAir}
  0.005;                                  !- Zone Humidification Design Supply Air Humidity Ratio Difference {kgWater/kgDryAir}

OS:ZoneHVAC:EquipmentList,
  {e989d1a4-8aaf-4c42-a2ef-cf231d77c493}, !- Handle
  Zone HVAC Equipment List 1,             !- Name
  {8c1cc0e6-12ca-4dae-a6bb-7313bb14529d}, !- Thermal Zone
  ,                                       !- Load Distribution Scheme
  {cb6e6d0b-556c-4d25-978b-6c77d9b886a0}, !- Zone Equipment 1
  1,                                      !- Zone Equipment Cooling Sequence 1
  1,                                      !- Zone Equipment Heating or No-Load Sequence 1
  ,                                       !- Zone Equipment Sequential Cooling Fraction Schedule Name 1
  ;                                       !- Zone Equipment Sequential Heating Fraction Schedule Name 1

OS:Surface,
  {bc3cf1a9-0ece-45fe-ae9e-38e3fae1b14d}, !- Handle
  Perimeter_ZN_4_envelope_0,              !- Name
  Wall,                                   !- Surface Type
  {b94b3d59-f6a5-4741-9f8f-c86ee859f81d}, !- Construction Name
  {4c5de505-976b-4fbe-af06-55ad1cdfa497}, !- Space Name
  Outdoors,                               !- Outside Boundary Condition
  ,                                       !- Outside Boundary Condition Object
  SunExposed,                             !- Sun Exposure
  WindExposed,                            !- Wind Exposure
  ,                                       !- View Factor to Ground
  ,                                       !- Number of Vertices
  -0, 18.46, -0.1,                        !- X,Y,Z Vertex 1 {m}
  -0, 0, -0.1,                            !- X,Y,Z Vertex 2 {m}
  -0, 0, 3.05795,                         !- X,Y,Z Vertex 3 {m}
  -0, 18.46, 3.05795;                     !- X,Y,Z Vertex 4 {m}

OS:SubSurface,
  {dc6cfff5-5b16-4b8d-be0c-008dec1a7fa3}, !- Handle
  Perimeter_ZN_4_wall_west_Window_4,      !- Name
  FixedWindow,                            !- Sub Surface Type
  {429d01ff-f015-4b40-8e68-deaa20721bc7}, !- Construction Name
  {bc3cf1a9-0ece-45fe-ae9e-38e3fae1b14d}, !- Surface Name
  ,                                       !- Outside Boundary Condition Object
  ,                                       !- View Factor to Ground
  ,                                       !- Frame and Divider Name
  ,                                       !- Multiplier
  ,                                       !- Number of Vertices
  0, 3.22, 0.900816,                      !- X,Y,Z Vertex 1 {m}
  0, 1.39, 0.900816,                      !- X,Y,Z Vertex 2 {m}
  0, 1.39, 2.423816,                      !- X,Y,Z Vertex 3 {m}
  0, 3.22, 2.423816;                      !- X,Y,Z Vertex 4 {m}

OS:SubSurface,
  {0adfcdd4-2ea0-4cd2-bc8d-15d91b32ce5c}, !- Handle
  Perimeter_ZN_4_wall_west_Window_3,      !- Name
  FixedWindow,                            !- Sub Surface Type
  {429d01ff-f015-4b40-8e68-deaa20721bc7}, !- Construction Name
  {bc3cf1a9-0ece-45fe-ae9e-38e3fae1b14d}, !- Surface Name
  ,                                       !- Outside Boundary Condition Object
  ,                                       !- View Factor to Ground
  ,                                       !- Frame and Divider Name
  ,                                       !- Multiplier
  ,                                       !- Number of Vertices
  0, 7.84, 0.900816,                      !- X,Y,Z Vertex 1 {m}
  0, 6.01, 0.900816,                      !- X,Y,Z Vertex 2 {m}
  0, 6.01, 2.423816,                      !- X,Y,Z Vertex 3 {m}
  0, 7.84, 2.423816;                      !- X,Y,Z Vertex 4 {m}

OS:SubSurface,
  {e04cc2bd-d99b-40f7-a740-818f1bf2b797}, !- Handle
  Perimeter_ZN_4_wall_west_Window_2,      !- Name
  FixedWindow,                            !- Sub Surface Type
  {429d01ff-f015-4b40-8e68-deaa20721bc7}, !- Construction Name
  {bc3cf1a9-0ece-45fe-ae9e-38e3fae1b14d}, !- Surface Name
  ,                                       !- Outside Boundary Condition Object
  ,                                       !- View Factor to Ground
  ,                                       !- Frame and Divider Name
  ,                                       !- Multiplier
  ,                                       !- Number of Vertices
  0, 12.45, 0.900816,                     !- X,Y,Z Vertex 1 {m}
  0, 10.62, 0.900816,                     !- X,Y,Z Vertex 2 {m}
  0, 10.62, 2.423816,                     !- X,Y,Z Vertex 3 {m}
  0, 12.45, 2.423816;                     !- X,Y,Z Vertex 4 {m}

OS:SubSurface,
  {36beb12e-ddf4-4480-87f4-9332acdc770b}, !- Handle
  Perimeter_ZN_4_wall_west_Window_1,      !- Name
  FixedWindow,                            !- Sub Surface Type
  {429d01ff-f015-4b40-8e68-deaa20721bc7}, !- Construction Name
  {bc3cf1a9-0ece-45fe-ae9e-38e3fae1b14d}, !- Surface Name
  ,                                       !- Outside Boundary Condition Object
  ,                                       !- View Factor to Ground
  ,                                       !- Frame and Divider Name
  ,                                       !- Multiplier
  ,                                       !- Number of Vertices
  0, 17.07, 0.900816,                     !- X,Y,Z Vertex 1 {m}
  0, 15.24, 0.900816,                     !- X,Y,Z Vertex 2 {m}
  0, 15.24, 2.423816,                     !- X,Y,Z Vertex 3 {m}
  0, 17.07, 2.423816;                     !- X,Y,Z Vertex 4 {m}

OS:Surface,
  {0fdb1752-735d-4404-bbf7-cbefaf6603ad}, !- Handle
  Perimeter_ZN_4_envelope_1,              !- Name
  Floor,                                  !- Surface Type
  {b94b3d59-f6a5-4741-9f8f-c86ee859f81d}, !- Construction Name
  {4c5de505-976b-4fbe-af06-55ad1cdfa497}, !- Space Name
  Ground,                                 !- Outside Boundary Condition
  ,                                       !- Outside Boundary Condition Object
  NoSun,                                  !- Sun Exposure
  NoWind,                                 !- Wind Exposure
  ,                                       !- View Factor to Ground
  ,                                       !- Number of Vertices
  -0, 18.46, -0.1,                        !- X,Y,Z Vertex 1 {m}
  5, 13.46, -0.1,                         !- X,Y,Z Vertex 2 {m}
  5, 5, -0.1,                             !- X,Y,Z Vertex 3 {m}
  -0, 0, -0.1;                            !- X,Y,Z Vertex 4 {m}

OS:Surface,
  {45f696e2-c399-48f2-9130-955932e09a65}, !- Handle
  Perimeter_ZN_4_envelope_2,              !- Name
  RoofCeiling,                            !- Surface Type
  {eae2f0ec-228f-4086-9ffe-d4c19a47c545}, !- Construction Name
  {4c5de505-976b-4fbe-af06-55ad1cdfa497}, !- Space Name
  Outdoors,                               !- Outside Boundary Condition
  ,                                       !- Outside Boundary Condition Object
  SunExposed,                             !- Sun Exposure
  WindExposed,                            !- Wind Exposure
  ,                                       !- View Factor to Ground
  ,                                       !- Number of Vertices
  5, 13.46, 3.05795,                      !- X,Y,Z Vertex 1 {m}
  -0, 18.46, 3.05795,                     !- X,Y,Z Vertex 2 {m}
  -0, 0, 3.05795,                         !- X,Y,Z Vertex 3 {m}
  5, 5, 3.05795;                          !- X,Y,Z Vertex 4 {m}

OS:Surface,
  {8c5fa97a-3f6d-4480-9634-7578cf949bae}, !- Handle
  Perimeter_ZN_4_envelope_3,              !- Name
  Wall,                                   !- Surface Type
  {a7a5b431-a5a0-445b-a241-de73b7960f47}, !- Construction Name
  {4c5de505-976b-4fbe-af06-55ad1cdfa497}, !- Space Name
  Outdoors,                               !- Outside Boundary Condition
  ,                                       !- Outside Boundary Condition Object
  SunExposed,                             !- Sun Exposure
  WindExposed,                            !- Wind Exposure
  ,                                       !- View Factor to Ground
  ,                                       !- Number of Vertices
  -0, 0, -0.1,                            !- X,Y,Z Vertex 1 {m}
  5, 5, -0.1,                             !- X,Y,Z Vertex 2 {m}
  5, 5, 3.05795,                          !- X,Y,Z Vertex 3 {m}
  -0, 0, 3.05795;                         !- X,Y,Z Vertex 4 {m}

OS:Surface,
  {be45807a-a46f-4e54-82c7-a8a8f502c179}, !- Handle
  Perimeter_ZN_4_envelope_4,              !- Name
  Wall,                                   !- Surface Type
  {a7a5b431-a5a0-445b-a241-de73b7960f47}, !- Construction Name
  {4c5de505-976b-4fbe-af06-55ad1cdfa497}, !- Space Name
  Outdoors,                               !- Outside Boundary Condition
  ,                                       !- Outside Boundary Condition Object
  SunExposed,                             !- Sun Exposure
  WindExposed,                            !- Wind Exposure
  ,                                       !- View Factor to Ground
  ,                                       !- Number of Vertices
  5, 13.46, -0.1,                         !- X,Y,Z Vertex 1 {m}
  -0, 18.46, -0.1,                        !- X,Y,Z Vertex 2 {m}
  -0, 18.46, 3.05795,                     !- X,Y,Z Vertex 3 {m}
  5, 13.46, 3.05795;                      !- X,Y,Z Vertex 4 {m}

OS:Surface,
  {340c2d0a-4fe9-4c6d-9ab8-8ebfa3f917fa}, !- Handle
  Perimeter_ZN_4_envelope_5,              !- Name
  Wall,                                   !- Surface Type
  {a7a5b431-a5a0-445b-a241-de73b7960f47}, !- Construction Name
  {4c5de505-976b-4fbe-af06-55ad1cdfa497}, !- Space Name
  Outdoors,                               !- Outside Boundary Condition
  ,                                       !- Outside Boundary Condition Object
  SunExposed,                             !- Sun Exposure
  WindExposed,                            !- Wind Exposure
  ,                                       !- View Factor to Ground
  ,                                       !- Number of Vertices
  5, 5, -0.1,                             !- X,Y,Z Vertex 1 {m}
  5, 13.46, -0.1,                         !- X,Y,Z Vertex 2 {m}
  5, 13.46, 3.05795,                      !- X,Y,Z Vertex 3 {m}
  5, 5, 3.05795;                          !- X,Y,Z Vertex 4 {m}

OS:DesignSpecification:OutdoorAir,
  {ccfe5329-a829-4ecc-9c82-4623bb4d378f}, !- Handle
  Design Specification Outdoor Air 1,     !- Name
  ,                                       !- Outdoor Air Method
  ,                                       !- Outdoor Air Flow per Person {m3/s-person}
  0.00043,                                !- Outdoor Air Flow per Floor Area {m3/s-m2}
  ,                                       !- Outdoor Air Flow Rate {m3/s}
  ,                                       !- Outdoor Air Flow Air Changes per Hour {1/hr}
  ;                                       !- Outdoor Air Flow Rate Fraction Schedule Name

OS:Space,
  {ba2ea58a-8aa0-4a33-8c93-0b756afebf72}, !- Handle
  Perimeter_ZN_2,                         !- Name
  ,                                       !- Space Type Name
  ,                                       !- Default Construction Set Name
  ,                                       !- Default Schedule Set Name
  ,                                       !- Direction of Relative North {deg}
  ,                                       !- X Origin {m}
  ,                                       !- Y Origin {m}
  ,                                       !- Z Origin {m}
  {810aebb3-fdac-490c-be16-8093ec18d2da}, !- Building Story Name
  {cd9d20cb-b012-4a29-bf7e-4989e544f17f}, !- Thermal Zone Name
  ,                                       !- Part of Total Floor Area
  {5cc9b8dc-478a-414b-b7c5-cbfe6f6d1e8a}, !- Design Specification Outdoor Air Object Name
  ,                                       !- Building Unit Name
  ,                                       !- Volume {m3}
  ,                                       !- Ceiling Height {m}
  Autocalculate;                          !- Floor Area {m2}

OS:ThermalZone,
  {cd9d20cb-b012-4a29-bf7e-4989e544f17f}, !- Handle
  Perimeter_ZN_2_tzone,                   !- Name
  ,                                       !- Multiplier
  ,                                       !- Ceiling Height {m}
  ,                                       !- Volume {m3}
  ,                                       !- Floor Area {m2}
  ,                                       !- Zone Inside Convection Algorithm
  ,                                       !- Zone Outside Convection Algorithm
  ,                                       !- Zone Conditioning Equipment List Name
  {128ce11b-cf58-499d-9fd9-652044a7f829}, !- Zone Air Inlet Port List
  {49cbc803-e39a-4136-9582-92a098dbb3eb}, !- Zone Air Exhaust Port List
  {1fde06bc-927c-4967-885f-cdfe298e82ea}, !- Zone Air Node Name
  {48d52aea-afdf-4cad-9f5f-18748f9c1e00}, !- Zone Return Air Port List
  ,                                       !- Primary Daylighting Control Name
  ,                                       !- Fraction of Zone Controlled by Primary Daylighting Control
  ,                                       !- Secondary Daylighting Control Name
  ,                                       !- Fraction of Zone Controlled by Secondary Daylighting Control
  ,                                       !- Illuminance Map Name
  ,                                       !- Group Rendering Name
  {c417636d-a014-4b96-8a7c-a2454a25d643}, !- Thermostat Name
  No;                                     !- Use Ideal Air Loads

OS:Node,
  {48a416cd-83ce-4605-8525-d2b75f74905b}, !- Handle
  Node 2,                                 !- Name
  {1fde06bc-927c-4967-885f-cdfe298e82ea}, !- Inlet Port
  ;                                       !- Outlet Port

OS:Connection,
  {1fde06bc-927c-4967-885f-cdfe298e82ea}, !- Handle
  {cd9d20cb-b012-4a29-bf7e-4989e544f17f}, !- Source Object
  11,                                     !- Outlet Port
  {48a416cd-83ce-4605-8525-d2b75f74905b}, !- Target Object
  2;                                      !- Inlet Port

OS:PortList,
  {128ce11b-cf58-499d-9fd9-652044a7f829}, !- Handle
  {cd9d20cb-b012-4a29-bf7e-4989e544f17f}, !- HVAC Component
  {ab898fb1-68b7-4ca7-980f-5d06dbd8322f}; !- Port 1

OS:PortList,
  {49cbc803-e39a-4136-9582-92a098dbb3eb}, !- Handle
  {cd9d20cb-b012-4a29-bf7e-4989e544f17f}, !- HVAC Component
  {510cc9f2-f888-44f3-9ea2-913146827e4c}; !- Port 1

OS:PortList,
  {48d52aea-afdf-4cad-9f5f-18748f9c1e00}, !- Handle
  {cd9d20cb-b012-4a29-bf7e-4989e544f17f}; !- HVAC Component

OS:Sizing:Zone,
  {d6f2b2f4-a419-4d02-b78a-0673e197605e}, !- Handle
  {cd9d20cb-b012-4a29-bf7e-4989e544f17f}, !- Zone or ZoneList Name
  SupplyAirTemperature,                   !- Zone Cooling Design Supply Air Temperature Input Method
  14,                                     !- Zone Cooling Design Supply Air Temperature {C}
  11.11,                                  !- Zone Cooling Design Supply Air Temperature Difference {deltaC}
  SupplyAirTemperature,                   !- Zone Heating Design Supply Air Temperature Input Method
  40,                                     !- Zone Heating Design Supply Air Temperature {C}
  11.11,                                  !- Zone Heating Design Supply Air Temperature Difference {deltaC}
  0.0085,                                 !- Zone Cooling Design Supply Air Humidity Ratio {kg-H2O/kg-air}
  0.008,                                  !- Zone Heating Design Supply Air Humidity Ratio {kg-H2O/kg-air}
  ,                                       !- Zone Heating Sizing Factor
  ,                                       !- Zone Cooling Sizing Factor
  DesignDay,                              !- Cooling Design Air Flow Method
  ,                                       !- Cooling Design Air Flow Rate {m3/s}
  ,                                       !- Cooling Minimum Air Flow per Zone Floor Area {m3/s-m2}
  ,                                       !- Cooling Minimum Air Flow {m3/s}
  ,                                       !- Cooling Minimum Air Flow Fraction
  DesignDay,                              !- Heating Design Air Flow Method
  ,                                       !- Heating Design Air Flow Rate {m3/s}
  ,                                       !- Heating Maximum Air Flow per Zone Floor Area {m3/s-m2}
  ,                                       !- Heating Maximum Air Flow {m3/s}
  1,                                      !- Heating Maximum Air Flow Fraction
  No,                                     !- Account for Dedicated Outdoor Air System
  NeutralSupplyAir,                       !- Dedicated Outdoor Air System Control Strategy
  autosize,                               !- Dedicated Outdoor Air Low Setpoint Temperature for Design {C}
  autosize,                               !- Dedicated Outdoor Air High Setpoint Temperature for Design {C}