
OS:Version,
  {c95ce8b0-890c-4635-9ff9-ab0d8a4273f2}, !- Handle
  3.7.0;                                  !- Version Identifier

OS:Site,
  {ce247c77-050a-47f5-ba0f-5bfbd4ddb5fc}, !- Handle
  Miami Intl Ap_FL_USA Design_Conditions, !- Name
  25.82,                                  !- Latitude {deg}
  -80.3,                                  !- Longitude {deg}
  -5,                                     !- Time Zone {hr}
  11,                                     !- Elevation {m}
  City;                                   !- Terrain

OS:SimulationControl,
  {bfb07731-a329-4a81-b6a7-1e4d8c1eb2e9}, !- Handle
  Yes,                                    !- Do Zone Sizing Calculation
  Yes,                                    !- Do System Sizing Calculation
  Yes,                                    !- Do Plant Sizing Calculation
  No,                                     !- Run Simulation for Sizing Periods
  Yes,                                    !- Run Simulation for Weather File Run Periods
  0.04,                                   !- Loads Convergence Tolerance Value {W}
  0.2,                                    !- Temperature Convergence Tolerance Value {deltaC}
  FullInteriorAndExterior,                !- Solar Distribution
  25,                                     !- Maximum Number of Warmup Days
  6,                                      !- Minimum Number of Warmup Days
  No,                                     !- Do HVAC Sizing Simulation for Sizing Periods
  1;                                      !- Maximum Number of HVAC Sizing Simulation Passes

OS:Timestep,
  {4a1882a1-b651-4ead-b561-a80b34f998df}, !- Handle
  6;                                      !- Number of Timesteps per Hour

OS:ConvergenceLimits,
  {45bf9612-927b-495a-bb82-277579eeb2a8}, !- Handle
  1,                                      !- Minimum System Timestep {minutes}
  20;                                     !- Maximum HVAC Iterations

OS:HeatBalanceAlgorithm,
  {a07aca25-5d83-4c1b-ad84-7fcc4335e432}, !- Handle
  ConductionTransferFunction,             !- Algorithm
  200;                                    !- Surface Temperature Upper Limit {C}

OS:ShadowCalculation,
  {c58c8344-999b-491b-9ab5-4c6281518dc8}, !- Handle
  PolygonClipping,                        !- Shading Calculation Method
  Periodic,                               !- Shading Calculation Update Frequency Method
  30,                                     !- Shading Calculation Update Frequency
  15000,                                  !- Maximum Figures in Shadow Overlap Calculations
  ,                                       !- Polygon Clipping Algorithm
  512,                                    !- Pixel Counting Resolution
  ,                                       !- Sky Diffuse Modeling Algorithm
  No,                                     !- Output External Shading Calculation Results
  No,                                     !- Disable Self-Shading Within Shading Zone Groups
  No;                                     !- Disable Self-Shading From Shading Zone Groups to Other Zones

OS:RunPeriod,
  {ff004426-7fa4-4f92-a8b4-883ce2210207}, !- Handle
  RUNPERIOD 1,                            !- Name
  1,                                      !- Begin Month
  1,                                      !- Begin Day of Month
  12,                                     !- End Month
  31,                                     !- End Day of Month
  No,                                     !- Use Weather File Holidays and Special Days
  No,                                     !- Use Weather File Daylight Saving Period
  No,                                     !- Apply Weekend Holiday Rule
  Yes,                                    !- Use Weather File Rain Indicators
  Yes,                                    !- Use Weather File Snow Indicators
  ;                                       !- Number of Times Runperiod to be Repeated

OS:YearDescription,
  {fa230a13-5e89-4d63-abbd-0d833e52a8b9}, !- Handle
  ,                                       !- Calendar Year
  Sunday;                                 !- Day of Week for Start Day

OS:RunPeriodControl:SpecialDays,
  {c69d9c4d-dad1-45ae-87cd-eaab65678b4d}, !- Handle
  New Years Day,                          !- Name
  January 1,                              !- Start Date
  1,                                      !- Duration {days}
  Holiday;                                !- Special Day Type

OS:RunPeriodControl:SpecialDays,
  {90057d01-562d-4ea5-9f37-964d0c125080}, !- Handle
  Veterans Day,                           !- Name
  November 11,                            !- Start Date
  1,                                      !- Duration {days}
  Holiday;                                !- Special Day Type

OS:RunPeriodControl:SpecialDays,
  {1b88027a-9cc2-45b3-8991-83b661cb7653}, !- Handle
  Christmas,                              !- Name
  December 25,                            !- Start Date
  1,                                      !- Duration {days}
  Holiday;                                !- Special Day Type

OS:RunPeriodControl:SpecialDays,
  {c3e40cd6-d3e1-41be-b72b-e7472d31e877}, !- Handle
  Independence Day,                       !- Name
  July 4,                                 !- Start Date
  1,                                      !- Duration {days}
  Holiday;                                !- Special Day Type

OS:RunPeriodControl:SpecialDays,
  {075bbef2-d196-4070-9904-96d29d1fa962}, !- Handle
  Presidents Day,                         !- Name
  3rd Monday in February,                 !- Start Date
  1,                                      !- Duration {days}
  Holiday;                                !- Special Day Type

OS:RunPeriodControl:SpecialDays,
  {6f2726e7-c88d-4b00-bb0d-6b3b377bcc01}, !- Handle
  Memorial Day,                           !- Name
  Last Monday in May,                     !- Start Date
  1,                                      !- Duration {days}
  Holiday;                                !- Special Day Type

OS:RunPeriodControl:SpecialDays,
  {c94276bc-f21d-4720-8903-1a6720065ece}, !- Handle
  Labor Day,                              !- Name
  1st Monday in September,                !- Start Date
  1,                                      !- Duration {days}
  Holiday;                                !- Special Day Type

OS:RunPeriodControl:SpecialDays,
  {3f14fd7a-5aa8-453d-8166-95c226207d60}, !- Handle
  Columbus Day,                           !- Name
  2nd Monday in October,                  !- Start Date
  1,                                      !- Duration {days}
  Holiday;                                !- Special Day Type

OS:RunPeriodControl:SpecialDays,
  {37d5c7d2-72ff-4966-9a72-c453ee065f51}, !- Handle
  Thanksgiving,                           !- Name
  4th Thursday in November,               !- Start Date
  1,                                      !- Duration {days}
  Holiday;                                !- Special Day Type

OS:RunPeriodControl:DaylightSavingTime,
  {665e849a-fd61-45ee-9723-89a93b1a89cc}, !- Handle
  2nd Sunday in March,                    !- Start Date
  1st Sunday in November;                 !- End Date

OS:SizingPeriod:DesignDay,
  {33af30ae-22e7-4e8e-8c75-59c2377b6ddb}, !- Handle
  Miami Intl Ap Ann Htg 99.6% Condns DB,  !- Name
  8.7,                                    !- Maximum Dry-Bulb Temperature {C}
  0,                                      !- Daily Dry-Bulb Temperature Range {deltaC}
  101193,                                 !- Barometric Pressure {Pa}
  3.8,                                    !- Wind Speed {m/s}
  340,                                    !- Wind Direction {deg}
  0,                                      !- Sky Clearness
  No,                                     !- Rain Indicator
  No,                                     !- Snow Indicator
  21,                                     !- Day of Month
  1,                                      !- Month
  WinterDesignDay,                        !- Day Type
  No,                                     !- Daylight Saving Time Indicator
  Wetbulb,                                !- Humidity Condition Type
  ,                                       !- Humidity Condition Day Schedule Name
  8.7,                                    !- Wetbulb or DewPoint at Maximum Dry-Bulb {C}
  ,                                       !- Humidity Ratio at Maximum Dry-Bulb {kgWater/kgDryAir}
  ,                                       !- Enthalpy at Maximum Dry-Bulb {J/kg}
  DefaultMultipliers,                     !- Dry-Bulb Temperature Range Modifier Type
  ,                                       !- Dry-Bulb Temperature Range Modifier Day Schedule Name
  ASHRAEClearSky;                         !- Solar Model Indicator

OS:SizingPeriod:DesignDay,
  {05be54ba-50ba-4a22-922e-064e77f6007d}, !- Handle
  Miami Intl Ap Ann Clg .4% Condns DB=>MWB, !- Name
  33.2,                                   !- Maximum Dry-Bulb Temperature {C}
  6.7,                                    !- Daily Dry-Bulb Temperature Range {deltaC}
  101193,                                 !- Barometric Pressure {Pa}
  4.5,                                    !- Wind Speed {m/s}
  140,                                    !- Wind Direction {deg}
  ,                                       !- Sky Clearness
  No,                                     !- Rain Indicator
  No,                                     !- Snow Indicator
  21,                                     !- Day of Month
  7,                                      !- Month
  SummerDesignDay,                        !- Day Type
  No,                                     !- Daylight Saving Time Indicator
  Wetbulb,                                !- Humidity Condition Type
  ,                                       !- Humidity Condition Day Schedule Name
  25.3,                                   !- Wetbulb or DewPoint at Maximum Dry-Bulb {C}
  ,                                       !- Humidity Ratio at Maximum Dry-Bulb {kgWater/kgDryAir}
  ,                                       !- Enthalpy at Maximum Dry-Bulb {J/kg}
  DefaultMultipliers,                     !- Dry-Bulb Temperature Range Modifier Type
  ,                                       !- Dry-Bulb Temperature Range Modifier Day Schedule Name
  ASHRAETau,                              !- Solar Model Indicator
  ,                                       !- Beam Solar Day Schedule Name
  ,                                       !- Diffuse Solar Day Schedule Name
  0.528,                                  !- ASHRAE Clear Sky Optical Depth for Beam Irradiance {dimensionless}
  1.905;                                  !- ASHRAE Clear Sky Optical Depth for Diffuse Irradiance {dimensionless}

OS:Material:NoMass,
  {a81badc2-d58a-42af-9be1-8aad997ca282}, !- Handle
  Opaque Door panel_con,                  !- Name
  MediumRough,                            !- Roughness
  0.251585991802674,                      !- Thermal Resistance {m2-K/W}
  0.9,                                    !- Thermal Absorptance
  0.7,                                    !- Solar Absorptance
  0.7;                                    !- Visible Absorptance

OS:Construction,
  {fc68dcd3-a91d-4cc5-82a3-d8527184e18b}, !- Handle
  Swinging Door_con,                      !- Name
  ,                                       !- Surface Rendering Name
  {a81badc2-d58a-42af-9be1-8aad997ca282}; !- Layer 1

OS:Material,
  {32e8e20d-01e4-4b3e-8530-f2cc264047a8}, !- Handle
  Std Wood 6inch,                         !- Name
  MediumSmooth,                           !- Roughness
  0.15,                                   !- Thickness {m}
  0.12,                                   !- Conductivity {W/m-K}
  540,                                    !- Density {kg/m3}
  1210,                                   !- Specific Heat {J/kg-K}
  0.9,                                    !- Thermal Absorptance
  0.7,                                    !- Solar Absorptance
  0.7;                                    !- Visible Absorptance

OS:Material,
  {ea040b1b-0f58-442f-8b3b-b864b5e11866}, !- Handle
  F07 25mm stucco,                        !- Name
  Smooth,                                 !- Roughness
  0.0254,                                 !- Thickness {m}
  0.72,                                   !- Conductivity {W/m-K}
  1856,                                   !- Density {kg/m3}
  840,                                    !- Specific Heat {J/kg-K}
  0.9,                                    !- Thermal Absorptance
  0.7,                                    !- Solar Absorptance
  0.7;                                    !- Visible Absorptance

OS:Material,
  {777d50cb-6af2-4a15-8bb2-abb49ee1ec78}, !- Handle
  F08 Metal surface,                      !- Name
  Smooth,                                 !- Roughness
  0.0008,                                 !- Thickness {m}
  45.28,                                  !- Conductivity {W/m-K}
  7824,                                   !- Density {kg/m3}
  500;                                    !- Specific Heat {J/kg-K}

OS:Material,
  {fb2f53cb-fe64-41c6-89c2-913bed327e68}, !- Handle
  F08 Metal roof surface,                 !- Name
  Smooth,                                 !- Roughness
  0.0008,                                 !- Thickness {m}
  45.28,                                  !- Conductivity {W/m-K}
  7824,                                   !- Density {kg/m3}
  500,                                    !- Specific Heat {J/kg-K}
  0.9,                                    !- Thermal Absorptance
  0.7;                                    !- Solar Absorptance

OS:Material,
  {c88c179d-e231-44c6-8ea2-7c72478c4d09}, !- Handle
  F12 Asphalt shingles,                   !- Name
  VeryRough,                              !- Roughness
  0.0032,                                 !- Thickness {m}
  0.04,                                   !- Conductivity {W/m-K}
  1120,                                   !- Density {kg/m3}
  1260,                                   !- Specific Heat {J/kg-K}
  0.9,                                    !- Thermal Absorptance
  0.7;                                    !- Solar Absorptance

OS:Material,
  {553ef754-deb3-49ed-863d-6964648c4171}, !- Handle
  F13 Built-up roofing,                   !- Name
  Rough,                                  !- Roughness
  0.0095,                                 !- Thickness {m}
  0.16,                                   !- Conductivity {W/m-K}
  1120,                                   !- Density {kg/m3}
  1460,                                   !- Specific Heat {J/kg-K}
  0.9,                                    !- Thermal Absorptance
  0.7;                                    !- Solar Absorptance

OS:Material,
  {a8c1ed32-0171-48e7-84f1-ff895f090452}, !- Handle
  G01 13mm gypsum board,                  !- Name
  Smooth,                                 !- Roughness
  0.0127,                                 !- Thickness {m}
  0.16,                                   !- Conductivity {W/m-K}
  800,                                    !- Density {kg/m3}
  1090,                                   !- Specific Heat {J/kg-K}
  0.9,                                    !- Thermal Absorptance
  0.7,                                    !- Solar Absorptance
  0.5;                                    !- Visible Absorptance

OS:Material,
  {c520bcfe-4e9b-48c9-9229-b2a16c0728b4}, !- Handle
  G01 16mm gypsum board,                  !- Name
  MediumSmooth,                           !- Roughness
  0.0159,                                 !- Thickness {m}
  0.16,                                   !- Conductivity {W/m-K}
  800,                                    !- Density {kg/m3}
  1090;                                   !- Specific Heat {J/kg-K}

OS:Material,
  {18fd785e-cb79-404d-ba90-51d34732289a}, !- Handle
  G02 16mm plywood,                       !- Name
  Smooth,                                 !- Roughness
  0.0159,                                 !- Thickness {m}
  0.12,                                   !- Conductivity {W/m-K}
  544,                                    !- Density {kg/m3}
  1210;                                   !- Specific Heat {J/kg-K}

OS:Material,
  {91d96e29-6b2a-424a-a6a2-4f244306a333}, !- Handle
  M14 150mm heavyweight concrete roof,    !- Name
  MediumRough,                            !- Roughness
  0.1524,                                 !- Thickness {m}
  2.31,                                   !- Conductivity {W/m-K}
  2322,                                   !- Density {kg/m3}
  832;                                    !- Specific Heat {J/kg-K}

OS:Material,
  {ac8c6d5e-146e-4254-af6f-ca91d600db8e}, !- Handle
  100mm Normalweight concrete wall,       !- Name
  MediumRough,                            !- Roughness
  0.1016,                                 !- Thickness {m}
  2.31,                                   !- Conductivity {W/m-K}
  2322,                                   !- Density {kg/m3}
  832;                                    !- Specific Heat {J/kg-K}

OS:Material,
  {35f84b0f-e781-4488-afc9-4494102841e0}, !- Handle
  200mm Normalweight concrete wall,       !- Name
  MediumRough,                            !- Roughness
  0.2032,                                 !- Thickness {m}
  2.31,                                   !- Conductivity {W/m-K}
  2322,                                   !- Density {kg/m3}
  832;                                    !- Specific Heat {J/kg-K}

OS:Material,
  {f4282a97-2f97-4c9b-a1d9-968bc0ceef0a}, !- Handle
  100mm Normalweight concrete floor,      !- Name
  MediumRough,                            !- Roughness
  0.1016,                                 !- Thickness {m}
  2.31,                                   !- Conductivity {W/m-K}
  2322,                                   !- Density {kg/m3}
  832;                                    !- Specific Heat {J/kg-K}

OS:Material,
  {835d3c19-eabf-4fe3-8bcd-4bf8a9c2bf3a}, !- Handle
  150mm Normalweight concrete floor,      !- Name
  MediumRough,                            !- Roughness
  0.1524,                                 !- Thickness {m}
  2.31,                                   !- Conductivity {W/m-K}
  2322,                                   !- Density {kg/m3}
  832;                                    !- Specific Heat {J/kg-K}

OS:Material,
  {e7134926-87b1-4e32-b51c-d1d4be017423}, !- Handle
  M10 200mm concrete block wall,          !- Name
  MediumRough,                            !- Roughness
  0.2032,                                 !- Thickness {m}
  0.72,                                   !- Conductivity {W/m-K}
  800,                                    !- Density {kg/m3}
  832;                                    !- Specific Heat {J/kg-K}

OS:Material,
  {5d76800f-307f-4251-b7ab-c8e91cdc96e3}, !- Handle
  M10 200mm concrete block basement wall, !- Name
  MediumRough,                            !- Roughness
  0.2032,                                 !- Thickness {m}
  1.326,                                  !- Conductivity {W/m-K}
  1842,                                   !- Density {kg/m3}
  912;                                    !- Specific Heat {J/kg-K}

OS:RunPeriodControl:SpecialDays,
  {8ab45f58-2da8-4959-9980-5b43982f73c6}, !- Handle
  MLK Day,                                !- Name
  3rd Monday in January,                  !- Start Date
  1,                                      !- Duration {days}
  Holiday;                                !- Special Day Type

OS:Material:NoMass,
  {df501fe0-79b6-4912-9261-717d5adce4e8}, !- Handle
  CP02 CARPET PAD,                        !- Name
  VeryRough,                              !- Roughness
  0.21648,                                !- Thermal Resistance {m2-K/W}
  0.9,                                    !- Thermal Absorptance
  0.7,                                    !- Solar Absorptance
  0.8;                                    !- Visible Absorptance

OS:Material:NoMass,
  {011d0682-d40f-4953-ab0f-4e91a123c3aa}, !- Handle
  Air_Wall_Material,                      !- Name
  Rough,                                  !- Roughness
  0.2079491,                              !- Thermal Resistance {m2-K/W}
  0.9,                                    !- Thermal Absorptance
  0.7;                                    !- Solar Absorptance

OS:Material:NoMass,
  {bfa47e90-feb4-42c2-9b82-ea329e40e16f}, !- Handle
  Nonres_Roof_Insulation,                 !- Name
  MediumSmooth,                           !- Roughness
  2.59864128954982,                       !- Thermal Resistance {m2-K/W}
  0.9,                                    !- Thermal Absorptance
  0.7,                                    !- Solar Absorptance
  0.7;                                    !- Visible Absorptance

OS:Material:NoMass,
  {bbbdec48-6bd1-4af1-9a25-89089c1e43e3}, !- Handle
  Res_Roof_Insulation,                    !- Name
  MediumSmooth,                           !- Roughness
  3.47220376108688,                       !- Thermal Resistance {m2-K/W}
  0.9,                                    !- Thermal Absorptance
  0.7,                                    !- Solar Absorptance
  0.7;                                    !- Visible Absorptance

OS:Material:NoMass,
  {7b3e9de0-5d85-462b-837c-fa20f532bd51}, !- Handle
  Semiheated_Roof_Insulation,             !- Name
  MediumSmooth,                           !- Roughness
  0.611086308437969,                      !- Thermal Resistance {m2-K/W}
  0.9,                                    !- Thermal Absorptance
  0.7,                                    !- Solar Absorptance
  0.7;                                    !- Visible Absorptance

OS:Material:NoMass,
  {2d6b9a71-f3ac-4536-9b33-cabf914f3eef}, !- Handle
  Nonres_Exterior_Wall_Insulation_grd,    !- Name
  MediumSmooth,                           !- Roughness
  0.518833538844668,                      !- Thermal Resistance {m2-K/W}
  0.9,                                    !- Thermal Absorptance
  0.7,                                    !- Solar Absorptance
  0.7;                                    !- Visible Absorptance

OS:ThermalZone,
  {aec739ab-b5f8-4d42-ae26-ae1689d24ce1}, !- Handle
  Perimeter_bot_ZN_3,                     !- Name
  1,                                      !- Multiplier
  2.7432,                                 !- Ceiling Height {m}
  ,                                       !- Volume {m3}
  ,                                       !- Floor Area {m2}
  ,                                       !- Zone Inside Convection Algorithm
  ,                                       !- Zone Outside Convection Algorithm
  ,                                       !- Zone Conditioning Equipment List Name
  {8ab751d6-42c7-4e12-ba56-3f8ddf65c4db}, !- Zone Air Inlet Port List
  {d8d16607-34db-4057-b9cd-afebb333a653}, !- Zone Air Exhaust Port List
  {67512a1c-2f2f-464b-8664-4af18c5493f3}, !- Zone Air Node Name
  {606d3a02-40f6-4712-a264-3de389d087b2}, !- Zone Return Air Port List
  ,                                       !- Primary Daylighting Control Name
  ,                                       !- Fraction of Zone Controlled by Primary Daylighting Control
  ,                                       !- Secondary Daylighting Control Name
  ,                                       !- Fraction of Zone Controlled by Secondary Daylighting Control
  ,                                       !- Illuminance Map Name
  ,                                       !- Group Rendering Name
  {49bbf0a2-ffd4-48b5-83fa-cdf4f212d608}, !- Thermostat Name
  No;                                     !- Use Ideal Air Loads

OS:Node,
  {3055d8e5-af2f-4ebf-a827-425cf89b32d1}, !- Handle
  Node 1,                                 !- Name
  {67512a1c-2f2f-464b-8664-4af18c5493f3}, !- Inlet Port
  ;                                       !- Outlet Port

OS:Connection,
  {67512a1c-2f2f-464b-8664-4af18c5493f3}, !- Handle
  {aec739ab-b5f8-4d42-ae26-ae1689d24ce1}, !- Source Object
  11,                                     !- Outlet Port
  {3055d8e5-af2f-4ebf-a827-425cf89b32d1}, !- Target Object
  2;                                      !- Inlet Port

OS:PortList,
  {8ab751d6-42c7-4e12-ba56-3f8ddf65c4db}, !- Handle
  {aec739ab-b5f8-4d42-ae26-ae1689d24ce1}; !- HVAC Component

OS:PortList,
  {d8d16607-34db-4057-b9cd-afebb333a653}, !- Handle
  {aec739ab-b5f8-4d42-ae26-ae1689d24ce1}; !- HVAC Component

OS:PortList,
  {606d3a02-40f6-4712-a264-3de389d087b2}, !- Handle
  {aec739ab-b5f8-4d42-ae26-ae1689d24ce1}; !- HVAC Component

OS:Sizing:Zone,
  {b6c2f1bb-3cc0-4fe8-9171-d37582bcca8a}, !- Handle
  {aec739ab-b5f8-4d42-ae26-ae1689d24ce1}, !- Zone or ZoneList Name
  SupplyAirTemperature,                   !- Zone Cooling Design Supply Air Temperature Input Method
  12.8,                                   !- Zone Cooling Design Supply Air Temperature {C}
  11.11,                                  !- Zone Cooling Design Supply Air Temperature Difference {deltaC}
  SupplyAirTemperature,                   !- Zone Heating Design Supply Air Temperature Input Method
  40,                                     !- Zone Heating Design Supply Air Temperature {C}
  11.11,                                  !- Zone Heating Design Supply Air Temperature Difference {deltaC}
  0.0085,                                 !- Zone Cooling Design Supply Air Humidity Ratio {kg-H2O/kg-air}
  0.008,                                  !- Zone Heating Design Supply Air Humidity Ratio {kg-H2O/kg-air}
  ,                                       !- Zone Heating Sizing Factor
  ,                                       !- Zone Cooling Sizing Factor
  DesignDay,                              !- Cooling Design Air Flow Method
  0,                                      !- Cooling Design Air Flow Rate {m3/s}
  ,                                       !- Cooling Minimum Air Flow per Zone Floor Area {m3/s-m2}
  ,                                       !- Cooling Minimum Air Flow {m3/s}
  0,                                      !- Cooling Minimum Air Flow Fraction
  DesignDay,                              !- Heating Design Air Flow Method
  0,                                      !- Heating Design Air Flow Rate {m3/s}
  ,                                       !- Heating Maximum Air Flow per Zone Floor Area {m3/s-m2}
  ,                                       !- Heating Maximum Air Flow {m3/s}
  ,                                       !- Heating Maximum Air Flow Fraction
  No,                                     !- Account for Dedicated Outdoor Air System
  ,                                       !- Dedicated Outdoor Air System Control Strategy
  autosize,                               !- Dedicated Outdoor Air Low Setpoint Temperature for Design {C}
  autosize,                               !- Dedicated Outdoor Air High Setpoint Temperature for Design {C}
  Sensible Load Only No Latent Load,      !- Zone Load Sizing Method
  HumidityRatioDifference,                !- Zone Latent Cooling Design Supply Air Humidity Ratio Input Method
  ,                                       !- Zone Dehumidification Design Supply Air Humidity Ratio {kgWater/kgDryAir}
  0.005,                                  !- Zone Cooling Design Supply Air Humidity Ratio Difference {kgWater/kgDryAir}
  HumidityRatioDifference,                !- Zone Latent Heating Design Supply Air Humidity Ratio Input Method
  ,                                       !- Zone Humidification Design Supply Air Humidity Ratio {kgWater/kgDryAir}
  0.005,                                  !- Zone Humidification Design Supply Air Humidity Ratio Difference {kgWater/kgDryAir}
  ,                                       !- Zone Humidistat Dehumidification Set Point Schedule Name
  ,                                       !- Zone Humidistat Humidification Set Point Schedule Name
  1,                                      !- Design Zone Air Distribution Effectiveness in Cooling Mode
  1,                                      !- Design Zone Air Distribution Effectiveness in Heating Mode
  ,                                       !- Design Zone Secondary Recirculation Fraction {dimensionless}
  0.6;                                    !- Design Minimum Zone Ventilation Efficiency {dimensionless}

OS:ZoneHVAC:EquipmentList,
  {3918cb70-6862-4985-b3d2-38c992a47b1f}, !- Handle
  Zone HVAC Equipment List 1,             !- Name
  {aec739ab-b5f8-4d42-ae26-ae1689d24ce1}; !- Thermal Zone

OS:Space,
  {88af949c-6329-4030-875d-19af6358a99b}, !- Handle
  Perimeter_bot_ZN_3 Space,               !- Name
  ,                                       !- Space Type Name
  ,                                       !- Default Construction Set Name
  ,                                       !- Default Schedule Set Name
  0,                                      !- Direction of Relative North {deg}
  0,                                      !- X Origin {m}
  0,                                      !- Y Origin {m}
  0,                                      !- Z Origin {m}
  ,                                       !- Building Story Name
  {aec739ab-b5f8-4d42-ae26-ae1689d24ce1}, !- Thermal Zone Name
  Yes,                                    !- Part of Total Floor Area
  {8b000246-cd1f-4fea-8b09-2391fe880fcc}; !- Design Specification Outdoor Air Object Name

OS:ThermostatSetpoint:DualSetpoint,
  {49bbf0a2-ffd4-48b5-83fa-cdf4f212d608}, !- Handle
  Perimeter_bot_ZN_3 Dual SP Control,     !- Name
  {9fa8a319-75a5-4637-85fc-7f63733d2b82}, !- Heating Setpoint Temperature Schedule Name
  {96d333d2-d85b-4e9e-8b54-c0dd9d746a0a}; !- Cooling Setpoint Temperature Schedule Name

OS:Schedule:Compact,
  {9fa8a319-75a5-4637-85fc-7f63733d2b82}, !- Handle
  HTGSETP_SCH_PACU_VAV_bot,               !- Name
  {082bb042-1c50-454b-a42d-919e8c7278b7}, !- Schedule Type Limits Name
  Through: 12/31,                         !- Field 1
  For: WinterDesignDay,                   !- Field 2
  Until: 05:00,                           !- Field 3
  15.6,                                   !- Field 4
  Until: 06:00,                           !- Field 5