!-Generator IDFEditor 1.51
!-Option SortedOrder
!-NOTE: All comments with '!-' are ignored by the IDFEditor and are generated automatically.
!-      Use '!' comments if they need to be retained when using the IDFEditor.
!-   ===========  ALL OBJECTS IN CLASS: VERSION ===========
! File generated by DesignBuilder - 7.2.0.023 16/6/2024 - 2:42:51 PM
! Source file: C:\Users\E1323494\OneDrive - National University of Singapore\0_NUS\IDEAS LAB\Radiant Cooling\240503 BCA testbed EP Model\model\calibration\feng\New folder\design_acc_noheating.dsb
! Geometry convention template : External measurements
! Zone geometry and surface areas : 2-Outer
! Zone volume calculation method : 1-Inner
! Zone floor area calculation method : 1-Inner
! Window to wall ratio method : 1-Inner

  Version,23.1;

!-   ===========  ALL OBJECTS IN CLASS: SIMULATIONCONTROL ===========

  SimulationControl,
    Yes,                     !- Do Zone Sizing Calculation
    Yes,                     !- Do System Sizing Calculation
    Yes,                     !- Do Plant Sizing Calculation
    No,                      !- Run Simulation for Sizing Periods
    Yes,                     !- Run Simulation for Weather File Run Periods
    ,                        !- Do HVAC Sizing Simulation for Sizing Periods
    ;                        !- Maximum Number of HVAC Sizing Simulation Passes

!-   ===========  ALL OBJECTS IN CLASS: BUILDING ===========

  Building,
    Building 1,              !- Name
    0,                       !- North Axis {deg}
    Suburbs,                 !- Terrain
    0.04,                    !- Loads Convergence Tolerance Value {W}
    0.4,                     !- Temperature Convergence Tolerance Value {deltaC}
    FullExterior,            !- Solar Distribution
    25,                      !- Maximum Number of Warmup Days
    6;                       !- Minimum Number of Warmup Days

!-   ===========  ALL OBJECTS IN CLASS: SHADOWCALCULATION ===========

  ShadowCalculation,
    PolygonClipping,         !- Shading Calculation Method
    Periodic,                !- Shading Calculation Update Frequency Method
    20,                      !- Shading Calculation Update Frequency
    15000,                   !- Maximum Figures in Shadow Overlap Calculations
    SutherlandHodgman,       !- Polygon Clipping Algorithm
    ,                        !- Pixel Counting Resolution
    SimpleSkyDiffuseModeling;!- Sky Diffuse Modeling Algorithm

!-   ===========  ALL OBJECTS IN CLASS: SURFACECONVECTIONALGORITHM:INSIDE ===========

  SurfaceConvectionAlgorithm:Inside,TARP;

!-   ===========  ALL OBJECTS IN CLASS: SURFACECONVECTIONALGORITHM:OUTSIDE ===========

  SurfaceConvectionAlgorithm:Outside,DOE-2;

!-   ===========  ALL OBJECTS IN CLASS: HEATBALANCEALGORITHM ===========

  HeatBalanceAlgorithm,ConductionTransferFunction,2000,0.00000001,1000;

!-   ===========  ALL OBJECTS IN CLASS: ZONEAIRCONTAMINANTBALANCE ===========

  ZoneAirContaminantBalance,
    Yes,                     !- Carbon Dioxide Concentration
    Default outdoor CO2 levels 400 ppm (Source: NOAA ESRL),  !- Outdoor Carbon Dioxide Schedule Name
    No;                      !- Generic Contaminant Concentration

!-   ===========  ALL OBJECTS IN CLASS: ZONECAPACITANCEMULTIPLIER:RESEARCHSPECIAL ===========

  ZoneCapacitanceMultiplier:ResearchSpecial,
    All,                     !- Name
    ,                        !- Zone or ZoneList Name
    1,                       !- Temperature Capacity Multiplier
    1.0,                     !- Humidity Capacity Multiplier
    1.0,                     !- Carbon Dioxide Capacity Multiplier
    1.0;                     !- Generic Contaminant Capacity Multiplier

!-   ===========  ALL OBJECTS IN CLASS: TIMESTEP ===========

  Timestep,6;

!-   ===========  ALL OBJECTS IN CLASS: CONVERGENCELIMITS ===========

  ConvergenceLimits,
    1,                       !- Minimum System Timestep {minutes}
    25;                      !- Maximum HVAC Iterations

!-   ===========  ALL OBJECTS IN CLASS: SITE:LOCATION ===========
! Hourly weather file: C:\ProgramData\DesignBuilder\Weather Data\SGP_Singapore.579700_BCA.epw

  Site:Location,
    trial (15-04:19-04)  (15-04:19-04),  !- Name
    1.37,                    !- Latitude {deg}
    103.92,                  !- Longitude {deg}
    7,                       !- Time Zone {hr}
    32;                      !- Elevation {m}

!-   ===========  ALL OBJECTS IN CLASS: SIZINGPERIOD:DESIGNDAY ===========

  SizingPeriod:DesignDay,
    Summer Design Day in trial (15-04:19-04) Jun,  !- Name
    6,                       !- Month
    15,                      !- Day of Month
    SummerDesignDay,         !- Day Type
    34.1,                    !- Maximum Dry-Bulb Temperature {C}
    6.1,                     !- Daily Dry-Bulb Temperature Range {deltaC}
    ,                        !- Dry-Bulb Temperature Range Modifier Type
    ,                        !- Dry-Bulb Temperature Range Modifier Day Schedule Name
    WetBulb,                 !- Humidity Condition Type
    26.5,                    !- Wetbulb or DewPoint at Maximum Dry-Bulb {C}
    ,                        !- Humidity Condition Day Schedule Name
    ,                        !- Humidity Ratio at Maximum Dry-Bulb {kgWater/kgDryAir}
    ,                        !- Enthalpy at Maximum Dry-Bulb {J/kg}
    ,                        !- Daily Wet-Bulb Temperature Range {deltaC}
    100941.2,                !- Barometric Pressure {Pa}
    0,                       !- Wind Speed {m/s}
    0,                       !- Wind Direction {deg}
    No,                      !- Rain Indicator
    No,                      !- Snow Indicator
    No,                      !- Daylight Saving Time Indicator
    ASHRAEClearSky,          !- Solar Model Indicator
    ,                        !- Beam Solar Day Schedule Name
    ,                        !- Diffuse Solar Day Schedule Name
    ,                        !- ASHRAE Clear Sky Optical Depth for Beam Irradiance (taub) {dimensionless}
    ,                        !- ASHRAE Clear Sky Optical Depth for Diffuse Irradiance (taud) {dimensionless}
    0.98;                    !- Sky Clearness

  SizingPeriod:DesignDay,
    Winter Design Day in trial (15-04:19-04),  !- Name
    1,                       !- Month
    15,                      !- Day of Month
    WinterDesignDay,         !- Day Type
    23.8,                    !- Maximum Dry-Bulb Temperature {C}
    0,                       !- Daily Dry-Bulb Temperature Range {deltaC}
    ,                        !- Dry-Bulb Temperature Range Modifier Type
    ,                        !- Dry-Bulb Temperature Range Modifier Day Schedule Name
    WetBulb,                 !- Humidity Condition Type
    23.8,                    !- Wetbulb or DewPoint at Maximum Dry-Bulb {C}
    ,                        !- Humidity Condition Day Schedule Name
    ,                        !- Humidity Ratio at Maximum Dry-Bulb {kgWater/kgDryAir}
    ,                        !- Enthalpy at Maximum Dry-Bulb {J/kg}
    ,                        !- Daily Wet-Bulb Temperature Range {deltaC}
    100941.2,                !- Barometric Pressure {Pa}
    1.9,                     !- Wind Speed {m/s}
    10,                      !- Wind Direction {deg}
    No,                      !- Rain Indicator
    No,                      !- Snow Indicator
    No,                      !- Daylight Saving Time Indicator
    ,                        !- Solar Model Indicator
    ,                        !- Beam Solar Day Schedule Name
    ,                        !- Diffuse Solar Day Schedule Name
    ,                        !- ASHRAE Clear Sky Optical Depth for Beam Irradiance (taub) {dimensionless}
    ,                        !- ASHRAE Clear Sky Optical Depth for Diffuse Irradiance (taud) {dimensionless}
    0;                       !- Sky Clearness

!-   ===========  ALL OBJECTS IN CLASS: RUNPERIOD ===========

  RunPeriod,
    trial (15-04:19-04),     !- Name
    4,                       !- Begin Month
    15,                      !- Begin Day of Month
    2024,                    !- Begin Year
    4,                       !- End Month
    19,                      !- End Day of Month
    2024,                    !- End Year
    ,                        !- Day of Week for Start Day
    No,                      !- Use Weather File Holidays and Special Days
    Yes,                     !- Use Weather File Daylight Saving Period
    Yes,                     !- Apply Weekend Holiday Rule
    Yes,                     !- Use Weather File Rain Indicators
    Yes,                     !- Use Weather File Snow Indicators
    No;                      !- Treat Weather as Actual

!-   ===========  ALL OBJECTS IN CLASS: RUNPERIODCONTROL:SPECIALDAYS ===========

  RunPeriodControl:SpecialDays,
    New Years Day,           !- Name
    1 Jan,                   !- Start Date
    1,                       !- Duration {days}
    Holiday;                 !- Special Day Type

  RunPeriodControl:SpecialDays,
    Christmas Day,           !- Name
    25 Dec,                  !- Start Date
    1,                       !- Duration {days}
    Holiday;                 !- Special Day Type

  RunPeriodControl:SpecialDays,
    Boxing Day,              !- Name
    26 Dec,                  !- Start Date
    1,                       !- Duration {days}
    Holiday;                 !- Special Day Type

  RunPeriodControl:SpecialDays,
    Easter Monday,           !- Name
    2nd Monday in April,     !- Start Date
    1,                       !- Duration {days}
    Holiday;                 !- Special Day Type

  RunPeriodControl:SpecialDays,
    Easter Sunday,           !- Name
    1st Sunday in April,     !- Start Date
    1,                       !- Duration {days}
    Holiday;                 !- Special Day Type

!-   ===========  ALL OBJECTS IN CLASS: SITE:GROUNDTEMPERATURE:BUILDINGSURFACE ===========

  Site:GroundTemperature:BuildingSurface,18,18,18,18,18,18,18,18,18,18,18,18;

!-   ===========  ALL OBJECTS IN CLASS: SITE:GROUNDTEMPERATURE:FCFACTORMETHOD ===========

  Site:GroundTemperature:FCfactorMethod,27.55,13,13,13,13,13,27.40,13,13,13,13,13;

!-   ===========  ALL OBJECTS IN CLASS: SITE:GROUNDTEMPERATURE:SHALLOW ===========

  Site:GroundTemperature:Shallow,14,14,14,14,14,14,14,14,14,14,14,14;

!-   ===========  ALL OBJECTS IN CLASS: SITE:GROUNDTEMPERATURE:DEEP ===========

  Site:GroundTemperature:Deep,14,14,14,14,14,14,14,14,14,14,14,14;

!-   ===========  ALL OBJECTS IN CLASS: SITE:GROUNDREFLECTANCE ===========

  Site:GroundReflectance,0.2,0.2,0.2,0.2,0.2,0.2,0.2,0.2,0.2,0.2,0.2,0.2;

!-   ===========  ALL OBJECTS IN CLASS: SITE:GROUNDREFLECTANCE:SNOWMODIFIER ===========

  Site:GroundReflectance:SnowModifier,
    2.0,                     !- Ground Reflected Solar Modifier
    2.0;                     !- Daylighting Ground Reflected Solar Modifier

!-   ===========  ALL OBJECTS IN CLASS: SITE:WATERMAINSTEMPERATURE ===========

  Site:WaterMainsTemperature,
    Correlation,             !- Calculation Method
    ,                        !- Temperature Schedule Name
    10,                      !- Annual Average Outdoor Air Temperature {C}
    20;                      !- Maximum Difference In Monthly Average Outdoor Air Temperatures {deltaC}

!-   ===========  ALL OBJECTS IN CLASS: SITE:PRECIPITATION ===========

  Site:Precipitation,
    ScheduleAndDesignLevel,  !- Precipitation Model Type
    0.75,                    !- Design Level for Total Annual Precipitation {m/yr}
    Site Precipitation Schedule,  !- Precipitation Rates Schedule Name
    0.75;                    !- Average Total Annual Precipitation {m/yr}

!-   ===========  ALL OBJECTS IN CLASS: ROOFIRRIGATION ===========

  RoofIrrigation,
    Schedule,                !- Irrigation Model Type
    Roof Irrigation Schedule;!- Irrigation Rate Schedule Name

!-   ===========  ALL OBJECTS IN CLASS: SCHEDULETYPELIMITS ===========
! Not limited

  ScheduleTypeLimits,
    Any Number;              !- Name

  ScheduleTypeLimits,
    Fraction,                !- Name
    0.0,                     !- Lower Limit Value
    1.0,                     !- Upper Limit Value
    CONTINUOUS;              !- Numeric Type

  ScheduleTypeLimits,
    Temperature,             !- Name
    -60,                     !- Lower Limit Value
    200,                     !- Upper Limit Value
    CONTINUOUS;              !- Numeric Type

  ScheduleTypeLimits,
    Control Type,            !- Name
    0,                       !- Lower Limit Value
    4,                       !- Upper Limit Value
    DISCRETE;                !- Numeric Type

  ScheduleTypeLimits,
    On/Off,                  !- Name
    0,                       !- Lower Limit Value
    1,                       !- Upper Limit Value
    DISCRETE;                !- Numeric Type

!-   ===========  ALL OBJECTS IN CLASS: SCHEDULE:DAY:HOURLY ===========
! off heating day

  Schedule:Day:Hourly,
    0,                       !- Name
    Any Number,              !- Schedule Type Limits Name
    0,                       !- Hour 1
    0,                       !- Hour 2
    0,                       !- Hour 3
    0,                       !- Hour 4
    0,                       !- Hour 5
    0,                       !- Hour 6
    0,                       !- Hour 7
    0,                       !- Hour 8
    0,                       !- Hour 9
    0,                       !- Hour 10
    0,                       !- Hour 11
    0,                       !- Hour 12
    0,                       !- Hour 13
    0,                       !- Hour 14
    0,                       !- Hour 15
    0,                       !- Hour 16
    0,                       !- Hour 17
    0,                       !- Hour 18
    0,                       !- Hour 19
    0,                       !- Hour 20
    0,                       !- Hour 21
    0,                       !- Hour 22
    0,                       !- Hour 23
    0;                       !- Hour 24

! off cooling day

  Schedule:Day:Hourly,
    50,                      !- Name
    Any Number,              !- Schedule Type Limits Name
    50,                      !- Hour 1
    50,                      !- Hour 2
    50,                      !- Hour 3
    50,                      !- Hour 4
    50,                      !- Hour 5
    50,                      !- Hour 6
    50,                      !- Hour 7
    50,                      !- Hour 8
    50,                      !- Hour 9
    50,                      !- Hour 10
    50,                      !- Hour 11
    50,                      !- Hour 12
    50,                      !- Hour 13
    50,                      !- Hour 14
    50,                      !- Hour 15
    50,                      !- Hour 16
    50,                      !- Hour 17
    50,                      !- Hour 18
    50,                      !- Hour 19
    50,                      !- Hour 20
    50,                      !- Hour 21
    50,                      !- Hour 22
    50,                      !- Hour 23
    50;                      !- Hour 24

! used in seasonal schedules

  Schedule:Day:Hourly,
    Off,                     !- Name
    Fraction,                !- Schedule Type Limits Name
    0,                       !- Hour 1
    0,                       !- Hour 2
    0,                       !- Hour 3
    0,                       !- Hour 4
    0,                       !- Hour 5
    0,                       !- Hour 6
    0,                       !- Hour 7
    0,                       !- Hour 8
    0,                       !- Hour 9
    0,                       !- Hour 10
    0,                       !- Hour 11
    0,                       !- Hour 12
    0,                       !- Hour 13
    0,                       !- Hour 14
    0,                       !- Hour 15
    0,                       !- Hour 16
    0,                       !- Hour 17
    0,                       !- Hour 18
    0,                       !- Hour 19
    0,                       !- Hour 20
    0,                       !- Hour 21
    0,                       !- Hour 22
    0,                       !- Hour 23
    0;                       !- Hour 24

! -------------------- Control type schedules (for heating & cooling) ----------------------

  Schedule:Day:Hourly,
    Summer Control Type Day Sch,  !- Name
    Control Type,            !- Schedule Type Limits Name
    4,                       !- Hour 1
    4,                       !- Hour 2
    4,                       !- Hour 3
    4,                       !- Hour 4
    4,                       !- Hour 5
    4,                       !- Hour 6
    4,                       !- Hour 7
    4,                       !- Hour 8
    4,                       !- Hour 9
    4,                       !- Hour 10
    4,                       !- Hour 11
    4,                       !- Hour 12
    4,                       !- Hour 13
    4,                       !- Hour 14
    4,                       !- Hour 15
    4,                       !- Hour 16
    4,                       !- Hour 17
    4,                       !- Hour 18
    4,                       !- Hour 19
    4,                       !- Hour 20
    4,                       !- Hour 21
    4,                       !- Hour 22
    4,                       !- Hour 23
    4;                       !- Hour 24

  Schedule:Day:Hourly,
    Winter Control Type Day Sch,  !- Name
    Control Type,            !- Schedule Type Limits Name
    4,                       !- Hour 1
    4,                       !- Hour 2
    4,                       !- Hour 3
    4,                       !- Hour 4
    4,                       !- Hour 5
    4,                       !- Hour 6
    4,                       !- Hour 7
    4,                       !- Hour 8
    4,                       !- Hour 9
    4,                       !- Hour 10
    4,                       !- Hour 11
    4,                       !- Hour 12
    4,                       !- Hour 13
    4,                       !- Hour 14
    4,                       !- Hour 15
    4,                       !- Hour 16
    4,                       !- Hour 17
    4,                       !- Hour 18
    4,                       !- Hour 19
    4,                       !- Hour 20
    4,                       !- Hour 21
    4,                       !- Hour 22
    4,                       !- Hour 23
    4;                       !- Hour 24

  Schedule:Day:Hourly,
    Summer Control Type Day Sch - cool,  !- Name
    Control Type,            !- Schedule Type Limits Name
    2,                       !- Hour 1
    2,                       !- Hour 2
    2,                       !- Hour 3
    2,                       !- Hour 4
    2,                       !- Hour 5
    2,                       !- Hour 6
    2,                       !- Hour 7
    2,                       !- Hour 8
    2,                       !- Hour 9
    2,                       !- Hour 10
    2,                       !- Hour 11
    2,                       !- Hour 12
    2,                       !- Hour 13
    2,                       !- Hour 14
    2,                       !- Hour 15
    2,                       !- Hour 16
    2,                       !- Hour 17
    2,                       !- Hour 18
    2,                       !- Hour 19
    2,                       !- Hour 20
    2,                       !- Hour 21
    2,                       !- Hour 22
    2,                       !- Hour 23
    2;                       !- Hour 24

  Schedule:Day:Hourly,
    Winter Control Type Day Sch - heat,  !- Name
    Control Type,            !- Schedule Type Limits Name
    1,                       !- Hour 1
    1,                       !- Hour 2
    1,                       !- Hour 3
    1,                       !- Hour 4
    1,                       !- Hour 5
    1,                       !- Hour 6
    1,                       !- Hour 7
    1,                       !- Hour 8
    1,                       !- Hour 9
    1,                       !- Hour 10
    1,                       !- Hour 11
    1,                       !- Hour 12
    1,                       !- Hour 13
    1,                       !- Hour 14
    1,                       !- Hour 15
    1,                       !- Hour 16
    1,                       !- Hour 17
    1,                       !- Hour 18
    1,                       !- Hour 19
    1,                       !- Hour 20
    1,                       !- Hour 21
    1,                       !- Hour 22
    1,                       !- Hour 23
    1;                       !- Hour 24

!-   ===========  ALL OBJECTS IN CLASS: SCHEDULE:WEEK:DAILY ===========

  Schedule:Week:Daily,
    Off,                     !- Name
    Off,                     !- Sunday Schedule:Day Name
    Off,                     !- Monday Schedule:Day Name
    Off,                     !- Tuesday Schedule:Day Name
    Off,                     !- Wednesday Schedule:Day Name
    Off,                     !- Thursday Schedule:Day Name
    Off,                     !- Friday Schedule:Day Name
    Off,                     !- Saturday Schedule:Day Name
    Off,                     !- Holiday Schedule:Day Name
    Off,                     !- SummerDesignDay Schedule:Day Name
    Off,                     !- WinterDesignDay Schedule:Day Name
    Off,                     !- CustomDay1 Schedule:Day Name
    Off;                     !- CustomDay2 Schedule:Day Name

  Schedule:Week:Daily,
    Summer Control Type Week Sch,  !- Name
    Summer Control Type Day Sch,  !- Sunday Schedule:Day Name
    Summer Control Type Day Sch,  !- Monday Schedule:Day Name
    Summer Control Type Day Sch,  !- Tuesday Schedule:Day Name
    Summer Control Type Day Sch,  !- Wednesday Schedule:Day Name
    Summer Control Type Day Sch,  !- Thursday Schedule:Day Name
    Summer Control Type Day Sch,  !- Friday Schedule:Day Name
    Summer Control Type Day Sch,  !- Saturday Schedule:Day Name
    Summer Control Type Day Sch,  !- Holiday Schedule:Day Name
    Summer Control Type Day Sch,  !- SummerDesignDay Schedule:Day Name
    Summer Control Type Day Sch,  !- WinterDesignDay Schedule:Day Name
    Summer Control Type Day Sch,  !- CustomDay1 Schedule:Day Name
    Summer Control Type Day Sch;  !- CustomDay2 Schedule:Day Name

  Schedule:Week:Daily,
    Winter Control Type Week Sch,  !- Name
    Winter Control Type Day Sch,  !- Sunday Schedule:Day Name
    Winter Control Type Day Sch,  !- Monday Schedule:Day Name
    Winter Control Type Day Sch,  !- Tuesday Schedule:Day Name
    Winter Control Type Day Sch,  !- Wednesday Schedule:Day Name
    Winter Control Type Day Sch,  !- Thursday Schedule:Day Name
    Winter Control Type Day Sch,  !- Friday Schedule:Day Name
    Winter Control Type Day Sch,  !- Saturday Schedule:Day Name
    Winter Control Type Day Sch,  !- Holiday Schedule:Day Name
    Winter Control Type Day Sch,  !- SummerDesignDay Schedule:Day Name
    Winter Control Type Day Sch,  !- WinterDesignDay Schedule:Day Name
    Winter Control Type Day Sch,  !- CustomDay1 Schedule:Day Name
    Winter Control Type Day Sch;  !- CustomDay2 Schedule:Day Name

  Schedule:Week:Daily,
    Summer Control Type Week Sch - cool,  !- Name
    Summer Control Type Day Sch - cool,  !- Sunday Schedule:Day Name
    Summer Control Type Day Sch - cool,  !- Monday Schedule:Day Name
    Summer Control Type Day Sch - cool,  !- Tuesday Schedule:Day Name
    Summer Control Type Day Sch - cool,  !- Wednesday Schedule:Day Name
    Summer Control Type Day Sch - cool,  !- Thursday Schedule:Day Name
    Summer Control Type Day Sch - cool,  !- Friday Schedule:Day Name
    Summer Control Type Day Sch - cool,  !- Saturday Schedule:Day Name
    Summer Control Type Day Sch - cool,  !- Holiday Schedule:Day Name
    Summer Control Type Day Sch - cool,  !- SummerDesignDay Schedule:Day Name
    Summer Control Type Day Sch - cool,  !- WinterDesignDay Schedule:Day Name
    Summer Control Type Day Sch - cool,  !- CustomDay1 Schedule:Day Name
    Summer Control Type Day Sch - cool;  !- CustomDay2 Schedule:Day Name

  Schedule:Week:Daily,
    Winter Control Type Week Sch - heat,  !- Name
    Winter Control Type Day Sch - heat,  !- Sunday Schedule:Day Name
    Winter Control Type Day Sch - heat,  !- Monday Schedule:Day Name
    Winter Control Type Day Sch - heat,  !- Tuesday Schedule:Day Name
    Winter Control Type Day Sch - heat,  !- Wednesday Schedule:Day Name
    Winter Control Type Day Sch - heat,  !- Thursday Schedule:Day Name
    Winter Control Type Day Sch - heat,  !- Friday Schedule:Day Name
    Winter Control Type Day Sch - heat,  !- Saturday Schedule:Day Name
    Winter Control Type Day Sch - heat,  !- Holiday Schedule:Day Name
    Winter Control Type Day Sch - heat,  !- SummerDesignDay Schedule:Day Name
    Winter Control Type Day Sch - heat,  !- WinterDesignDay Schedule:Day Name
    Winter Control Type Day Sch - heat,  !- CustomDay1 Schedule:Day Name
    Winter Control Type Day Sch - heat;  !- CustomDay2 Schedule:Day Name

!-   ===========  ALL OBJECTS IN CLASS: SCHEDULE:COMPACT ===========
! Modified schedule: On 24/7

  Schedule:Compact,
    Roof Irrigation Schedule,!- Name
    Any Number,              !- Schedule Type Limits Name
    Through: 12/31,          !- Field 1
    For: AllDays,            !- Field 2
    Until: 24:00,.00007;     !- Field 3

! Modified schedule: On 24/7

  Schedule:Compact,
    Site Precipitation Schedule,  !- Name
    Any Number,              !- Schedule Type Limits Name
    Through: 12/31,          !- Field 1
    For: AllDays,            !- Field 2
    Until: 24:00,1;          !- Field 3

! Name
! Type
! Type
! All days in year
! All hours in day

  Schedule:Compact,
    On,                      !- Name
    Any Number,              !- Schedule Type Limits Name
    Through: 12/31,          !- Field 1
    For: AllDays,            !- Field 2
    Until: 24:00,1;          !- Field 3

! Name
! Type
! Type
! All days in year
! All hours in day

  Schedule:Compact,
    Off,                     !- Name
    Any Number,              !- Schedule Type Limits Name
    Through: 12/31,          !- Field 1
    For: AllDays,            !- Field 2
    Until: 24:00,0;          !- Field 3

! Name
! Type
! Type
! All days in year
! All hours in day

  Schedule:Compact,
    Work efficiency,         !- Name
    Any Number,              !- Schedule Type Limits Name
    Through: 12/31,          !- Field 1
    For: AllDays,            !- Field 2
    Until: 24:00,0;          !- Field 3

! Name
! Type
! Type
! All days in year
! All hours in day

  Schedule:Compact,
    OpaqueShade,             !- Name
    Any Number,              !- Schedule Type Limits Name
    Through: 12/31,          !- Field 1
    For: AllDays,            !- Field 2
    Until: 24:00,0;          !- Field 3

  Schedule:Compact,
    Zone Comfort Control Type Sched,  !- Name
    Control Type,            !- Schedule Type Limits Name
    Through: 12/31,          !- Field 1
    For: AllDays,            !- Field 2
    Until: 24:00,4;          !- Field 3

  Schedule:Compact,
    Design Days Only,        !- Name
    Any Number,              !- Schedule Type Limits Name
    Through: 12/31,          !- Field 1
    For: SummerDesignDay WinterDesignDay, !- Field 2
    Until: 24:00,1,          !- Field 3
    For: AllOtherDays,       !- Field 5
    Until: 24:00,0;          !- Field 6

  Schedule:Compact,
    TypOperativeTempControlSch,  !- Name
    Temperature,             !- Schedule Type Limits Name
    Through: 31 Dec,         !- Field 1
    For: SummerDesignDay WinterDesignDay, !- Field 2
    Until: 24:00,0.0,        !- Field 3
    For: AllOtherDays,       !- Field 5
    Until: 24:00,0.5;        !- Field 6

! Name
! All days in year

  Schedule:Compact,
    OnWinterDesignDay,       !- Name
    Any Number,              !- Schedule Type Limits Name
    Through: 12/31,          !- Field 1
    For: WinterDesignDay,    !- Field 2
    Until: 24:00,1,          !- Field 3
    For: AllOtherDays,       !- Field 5
    Until: 24:00,0;          !- Field 6

! Name
! All days in year

  Schedule:Compact,
    OnSummerDesignDay,       !- Name
    Any Number,              !- Schedule Type Limits Name
    Through: 12/31,          !- Field 1
    For: SummerDesignDay,    !- Field 2
    Until: 24:00,1,          !- Field 3
    For: AllOtherDays,       !- Field 5
    Until: 24:00,0;          !- Field 6

! Schedule: On 24/7

  Schedule:Compact,
    On 24/7,                 !- Name
    Any Number,              !- Schedule Type Limits Name
    Through: 12/31,          !- Field 1
    For: AllDays,            !- Field 2
    Until: 24:00,1;          !- Field 3

! Schedule: Off 24/7

  Schedule:Compact,
    Off 24/7,                !- Name
    Any Number,              !- Schedule Type Limits Name
    Through: 12/31,          !- Field 1
    For: AllDays,            !- Field 2
    Until: 24:00,0;          !- Field 3

! Schedule: Hot Water flow set point temperature: Always 80.0 C

  Schedule:Compact,
    Hot Water flow set point temperature: Always 80.0 C,  !- Name
    Any Number,              !- Schedule Type Limits Name
    Through: 12/31,          !- Field 1
    For: AllDays,            !- Field 2
    Until: 24:00,80;         !- Field 3

! Schedule: Air loop cooling set point temperature: Always 14.0 C

  Schedule:Compact,
    Air loop cooling set point temperature: Always 14.0 C,  !- Name
    Any Number,              !- Schedule Type Limits Name
    Through: 12/31,          !- Field 1
    For: AllDays,            !- Field 2
    Until: 24:00,14;         !- Field 3

! Schedule: Heating set point schedule

  Schedule:Compact,
    Heating set point schedule,  !- Name
    Any Number,              !- Schedule Type Limits Name
    Through: 12/31,          !- Field 1
    For: AllDays,            !- Field 2
    Until: 24:00,20;         !- Field 3

! Schedule: Cooling set point schedule

  Schedule:Compact,
    Cooling set point schedule,  !- Name