
OS:Version,
  {10ca8b57-35db-44bb-a6ea-e587e788c3b3}, !- Handle
  3.7.0;                                  !- Version Identifier

OS:Material,
  {6323729d-8c18-42a1-a6ac-8a601e1405cf}, !- Handle
  Material 1,                             !- Name
  Smooth,                                 !- Roughness
  0.0254,                                 !- Thickness {m}
  0.72,                                   !- Conductivity {W/m-K}
  1856,                                   !- Density {kg/m3}
  840;                                    !- Specific Heat {J/kg-K}

OS:Material,
  {0fac8070-63c2-4dcc-a9e7-3b4dcc8bfeeb}, !- Handle
  Material 2,                             !- Name
  MediumSmooth,                           !- Roughness
  0.0159,                                 !- Thickness {m}
  0.16,                                   !- Conductivity {W/m-K}
  800,                                    !- Density {kg/m3}
  1090;                                   !- Specific Heat {J/kg-K}

OS:Material:NoMass,
  {fb95e2ee-5df0-4d29-a473-b6c710391148}, !- Handle
  Material No Mass 1,                     !- Name
  MediumSmooth,                           !- Roughness
  1.06783369996193,                       !- Thermal Resistance {m2-K/W}
  0.9,                                    !- Thermal Absorptance
  0.7,                                    !- Solar Absorptance
  0.7;                                    !- Visible Absorptance

OS:Material,
  {a36d455f-cdab-4fbd-b9b3-783d295f17e8}, !- Handle
  Material 3,                             !- Name
  MediumSmooth,                           !- Roughness
  0.0159,                                 !- Thickness {m}
  0.16,                                   !- Conductivity {W/m-K}
  800,                                    !- Density {kg/m3}
  1090;                                   !- Specific Heat {J/kg-K}

OS:Construction,
  {d1aed55a-24d8-413e-ad71-26ef71c66ea6}, !- Handle
  res_ext_wall_grd,                       !- Name
  ,                                       !- Surface Rendering Name
  {6323729d-8c18-42a1-a6ac-8a601e1405cf}, !- Layer 1
  {0fac8070-63c2-4dcc-a9e7-3b4dcc8bfeeb}, !- Layer 2
  {fb95e2ee-5df0-4d29-a473-b6c710391148}, !- Layer 3
  {a36d455f-cdab-4fbd-b9b3-783d295f17e8}; !- Layer 4

OS:Material,
  {bef486c7-ef33-4a0f-8391-60c116f6c659}, !- Handle
  Material 4,                             !- Name
  MediumSmooth,                           !- Roughness
  0.0159,                                 !- Thickness {m}
  0.16,                                   !- Conductivity {W/m-K}
  800,                                    !- Density {kg/m3}
  1090;                                   !- Specific Heat {J/kg-K}

OS:Material:NoMass,
  {6a0859a4-ec15-46eb-9802-798cb5c9e2c0}, !- Handle
  Material No Mass 2,                     !- Name
  MediumSmooth,                           !- Roughness
  6.23478687961654,                       !- Thermal Resistance {m2-K/W}
  0.9,                                    !- Thermal Absorptance
  0.7,                                    !- Solar Absorptance
  0.7;                                    !- Visible Absorptance

OS:Construction,
  {e65a5b42-be2a-4725-b00d-50fa9d413225}, !- Handle
  res_roof_floor,                         !- Name
  ,                                       !- Surface Rendering Name
  {bef486c7-ef33-4a0f-8391-60c116f6c659}, !- Layer 1
  {6a0859a4-ec15-46eb-9802-798cb5c9e2c0}; !- Layer 2

OS:Material,
  {a986027d-ebd5-4b31-8766-e2165b4e135d}, !- Handle
  Material 5,                             !- Name
  Smooth,                                 !- Roughness
  0.0127,                                 !- Thickness {m}
  0.16,                                   !- Conductivity {W/m-K}
  800,                                    !- Density {kg/m3}
  1090;                                   !- Specific Heat {J/kg-K}

OS:Material,
  {43f0d47c-4387-47ce-bc0c-d7858bc5d3df}, !- Handle
  Material 6,                             !- Name
  Smooth,                                 !- Roughness
  0.0127,                                 !- Thickness {m}
  0.16,                                   !- Conductivity {W/m-K}
  800,                                    !- Density {kg/m3}
  1090;                                   !- Specific Heat {J/kg-K}

OS:Construction,
  {f93debc6-d1e5-4594-b16a-8f4352e60fb9}, !- Handle
  int_wall,                               !- Name
  ,                                       !- Surface Rendering Name
  {a986027d-ebd5-4b31-8766-e2165b4e135d}, !- Layer 1
  {43f0d47c-4387-47ce-bc0c-d7858bc5d3df}; !- Layer 2

OS:WindowMaterial:SimpleGlazingSystem,
  {25752543-317e-43ae-8ed7-7618897fa8de}, !- Handle
  Window Material Simple Glazing System 1, !- Name
  2.86184304,                             !- U-Factor {W/m2-K}
  0.229,                                  !- Solar Heat Gain Coefficient
  0.2519;                                 !- Visible Transmittance

OS:Construction,
  {02a10984-0851-4378-96b9-a19f2688b1c3}, !- Handle
  Window_U_0.504_SHGC_North_0.229,        !- Name
  ,                                       !- Surface Rendering Name
  {25752543-317e-43ae-8ed7-7618897fa8de}; !- Layer 1

OS:Material:NoMass,
  {15eaca08-dff1-45ed-8389-16013e933410}, !- Handle
  Material No Mass 3,                     !- Name
  MediumRough,                            !- Roughness
  0.475973498005059,                      !- Thermal Resistance {m2-K/W}
  0.9,                                    !- Thermal Absorptance
  0.7,                                    !- Solar Absorptance
  0.7;                                    !- Visible Absorptance

OS:Construction,
  {662e9134-ab58-4031-b188-9d3bcb3861e9}, !- Handle
  Swinging Door_con,                      !- Name
  ,                                       !- Surface Rendering Name
  {15eaca08-dff1-45ed-8389-16013e933410}; !- Layer 1

OS:BuildingStory,
  {79dbbc85-7b48-424b-890d-84d3940c4951}, !- Handle
  Ground_level,                           !- Name
  ,                                       !- Nominal Z Coordinate {m}
  ,                                       !- Nominal Floor to Floor Height {m}
  ,                                       !- Default Construction Set Name
  ,                                       !- Default Schedule Set Name
  ;                                       !- Group Rendering Name

OS:BuildingStory,
  {61877317-82ba-40ea-a6c5-48e5445dc94f}, !- Handle
  Attic_level,                            !- Name
  ,                                       !- Nominal Z Coordinate {m}
  ,                                       !- Nominal Floor to Floor Height {m}
  ,                                       !- Default Construction Set Name
  ,                                       !- Default Schedule Set Name
  ;                                       !- Group Rendering Name

OS:Space,
  {d29432b7-1e21-4bfe-b74d-353de2ca43c6}, !- Handle
  Perimeter_ZN_4,                         !- Name
  ,                                       !- Space Type Name
  ,                                       !- Default Construction Set Name
  ,                                       !- Default Schedule Set Name
  ,                                       !- Direction of Relative North {deg}
  ,                                       !- X Origin {m}
  ,                                       !- Y Origin {m}
  ,                                       !- Z Origin {m}
  {79dbbc85-7b48-424b-890d-84d3940c4951}, !- Building Story Name
  {19370636-d98c-4115-8db3-446b217ad228}, !- Thermal Zone Name
  ,                                       !- Part of Total Floor Area
  {bd853fba-3595-4414-a696-e1c7e2c5ea1f}, !- Design Specification Outdoor Air Object Name
  ,                                       !- Building Unit Name
  ,                                       !- Volume {m3}
  ,                                       !- Ceiling Height {m}
  Autocalculate;                          !- Floor Area {m2}

OS:ThermalZone,
  {19370636-d98c-4115-8db3-446b217ad228}, !- Handle
  Perimeter_ZN_4_tzone,                   !- Name
  ,                                       !- Multiplier
  ,                                       !- Ceiling Height {m}
  ,                                       !- Volume {m3}
  ,                                       !- Floor Area {m2}
  ,                                       !- Zone Inside Convection Algorithm
  ,                                       !- Zone Outside Convection Algorithm
  ,                                       !- Zone Conditioning Equipment List Name
  {f8ab8b0c-eeb8-45ad-94fa-0f8172598b11}, !- Zone Air Inlet Port List
  {d4c447b8-5a58-4199-98d4-193577d06e02}, !- Zone Air Exhaust Port List
  {d522d7d2-fb59-4d2c-bf0b-c2bb2d6fd662}, !- Zone Air Node Name
  {d8c1ff18-649a-45f6-b0e8-02b93f226052}, !- Zone Return Air Port List
  ,                                       !- Primary Daylighting Control Name
  ,                                       !- Fraction of Zone Controlled by Primary Daylighting Control
  ,                                       !- Secondary Daylighting Control Name
  ,                                       !- Fraction of Zone Controlled by Secondary Daylighting Control
  ,                                       !- Illuminance Map Name
  ,                                       !- Group Rendering Name
  {8482d102-46b8-4cec-9174-e91a2b0e93ef}, !- Thermostat Name
  No;                                     !- Use Ideal Air Loads

OS:Node,
  {9ef947d1-f1c9-415d-8d62-79dc92ab5b34}, !- Handle
  Perimeter_ZN_4_tzone Zone Air Node,     !- Name
  {d522d7d2-fb59-4d2c-bf0b-c2bb2d6fd662}, !- Inlet Port
  ;                                       !- Outlet Port

OS:Connection,
  {d522d7d2-fb59-4d2c-bf0b-c2bb2d6fd662}, !- Handle
  {19370636-d98c-4115-8db3-446b217ad228}, !- Source Object
  11,                                     !- Outlet Port
  {9ef947d1-f1c9-415d-8d62-79dc92ab5b34}, !- Target Object
  2;                                      !- Inlet Port

OS:PortList,
  {f8ab8b0c-eeb8-45ad-94fa-0f8172598b11}, !- Handle
  {19370636-d98c-4115-8db3-446b217ad228}; !- HVAC Component

OS:PortList,
  {d4c447b8-5a58-4199-98d4-193577d06e02}, !- Handle
  {19370636-d98c-4115-8db3-446b217ad228}; !- HVAC Component

OS:PortList,
  {d8c1ff18-649a-45f6-b0e8-02b93f226052}, !- Handle
  {19370636-d98c-4115-8db3-446b217ad228}; !- HVAC Component

OS:Sizing:Zone,
  {6eb9c6e9-3d89-4da3-9f91-c20825c1e8cc}, !- Handle
  {19370636-d98c-4115-8db3-446b217ad228}, !- Zone or ZoneList Name
  SupplyAirTemperature,                   !- Zone Cooling Design Supply Air Temperature Input Method
  14,                                     !- Zone Cooling Design Supply Air Temperature {C}
  11.11,                                  !- Zone Cooling Design Supply Air Temperature Difference {deltaC}
  SupplyAirTemperature,                   !- Zone Heating Design Supply Air Temperature Input Method
  40,                                     !- Zone Heating Design Supply Air Temperature {C}
  11.11,                                  !- Zone Heating Design Supply Air Temperature Difference {deltaC}
  0.0085,                                 !- Zone Cooling Design Supply Air Humidity Ratio {kg-H2O/kg-air}
  0.008,                                  !- Zone Heating Design Supply Air Humidity Ratio {kg-H2O/kg-air}
  ,                                       !- Zone Heating Sizing Factor
  ,                                       !- Zone Cooling Sizing Factor
  DesignDay,                              !- Cooling Design Air Flow Method
  ,                                       !- Cooling Design Air Flow Rate {m3/s}
  ,                                       !- Cooling Minimum Air Flow per Zone Floor Area {m3/s-m2}
  ,                                       !- Cooling Minimum Air Flow {m3/s}
  ,                                       !- Cooling Minimum Air Flow Fraction
  DesignDay,                              !- Heating Design Air Flow Method
  ,                                       !- Heating Design Air Flow Rate {m3/s}
  ,                                       !- Heating Maximum Air Flow per Zone Floor Area {m3/s-m2}
  ,                                       !- Heating Maximum Air Flow {m3/s}
  ,                                       !- Heating Maximum Air Flow Fraction
  No,                                     !- Account for Dedicated Outdoor Air System
  NeutralSupplyAir,                       !- Dedicated Outdoor Air System Control Strategy
  autosize,                               !- Dedicated Outdoor Air Low Setpoint Temperature for Design {C}
  autosize,                               !- Dedicated Outdoor Air High Setpoint Temperature for Design {C}
  Sensible Load Only No Latent Load,      !- Zone Load Sizing Method
  HumidityRatioDifference,                !- Zone Latent Cooling Design Supply Air Humidity Ratio Input Method
  ,                                       !- Zone Dehumidification Design Supply Air Humidity Ratio {kgWater/kgDryAir}
  0.005,                                  !- Zone Cooling Design Supply Air Humidity Ratio Difference {kgWater/kgDryAir}
  HumidityRatioDifference,                !- Zone Latent Heating Design Supply Air Humidity Ratio Input Method
  ,                                       !- Zone Humidification Design Supply Air Humidity Ratio {kgWater/kgDryAir}
  0.005;                                  !- Zone Humidification Design Supply Air Humidity Ratio Difference {kgWater/kgDryAir}

OS:ZoneHVAC:EquipmentList,
  {c3a9e830-f1ce-4b2c-a1ba-66b0c8d3941b}, !- Handle
  Perimeter_ZN_4_tzone Zone HVAC Equipment List, !- Name
  {19370636-d98c-4115-8db3-446b217ad228}, !- Thermal Zone
  ,                                       !- Load Distribution Scheme
  {a5cb3371-997f-481c-a2a3-55ba87634962}, !- Zone Equipment 1
  1,                                      !- Zone Equipment Cooling Sequence 1
  1,                                      !- Zone Equipment Heating or No-Load Sequence 1
  ,                                       !- Zone Equipment Sequential Cooling Fraction Schedule Name 1
  ;                                       !- Zone Equipment Sequential Heating Fraction Schedule Name 1

OS:Surface,
  {2ade360e-6647-442c-a132-21f39f188492}, !- Handle
  Perimeter_ZN_4_envelope_0,              !- Name
  Wall,                                   !- Surface Type
  {d1aed55a-24d8-413e-ad71-26ef71c66ea6}, !- Construction Name
  {d29432b7-1e21-4bfe-b74d-353de2ca43c6}, !- Space Name
  Outdoors,                               !- Outside Boundary Condition
  ,                                       !- Outside Boundary Condition Object
  SunExposed,                             !- Sun Exposure
  WindExposed,                            !- Wind Exposure
  ,                                       !- View Factor to Ground
  ,                                       !- Number of Vertices
  -0, 18.46, -0.1,                        !- X,Y,Z Vertex 1 {m}
  -0, 0, -0.1,                            !- X,Y,Z Vertex 2 {m}
  -0, 0, 3.05795,                         !- X,Y,Z Vertex 3 {m}
  -0, 18.46, 3.05795;                     !- X,Y,Z Vertex 4 {m}

OS:SubSurface,
  {27e8bdf8-ded8-4d5e-b4ec-d07858d413f0}, !- Handle
  Perimeter_ZN_4_wall_west_Window_4,      !- Name
  FixedWindow,                            !- Sub Surface Type
  {02a10984-0851-4378-96b9-a19f2688b1c3}, !- Construction Name
  {2ade360e-6647-442c-a132-21f39f188492}, !- Surface Name
  ,                                       !- Outside Boundary Condition Object
  ,                                       !- View Factor to Ground
  ,                                       !- Frame and Divider Name
  ,                                       !- Multiplier
  ,                                       !- Number of Vertices
  0, 3.22, 0.900816,                      !- X,Y,Z Vertex 1 {m}
  0, 1.39, 0.900816,                      !- X,Y,Z Vertex 2 {m}
  0, 1.39, 2.423816,                      !- X,Y,Z Vertex 3 {m}
  0, 3.22, 2.423816;                      !- X,Y,Z Vertex 4 {m}

OS:SubSurface,
  {49261c5d-63f0-435b-a295-0be950661e7e}, !- Handle
  Perimeter_ZN_4_wall_west_Window_3,      !- Name
  FixedWindow,                            !- Sub Surface Type
  {02a10984-0851-4378-96b9-a19f2688b1c3}, !- Construction Name
  {2ade360e-6647-442c-a132-21f39f188492}, !- Surface Name
  ,                                       !- Outside Boundary Condition Object
  ,                                       !- View Factor to Ground
  ,                                       !- Frame and Divider Name
  ,                                       !- Multiplier
  ,                                       !- Number of Vertices
  0, 7.84, 0.900816,                      !- X,Y,Z Vertex 1 {m}
  0, 6.01, 0.900816,                      !- X,Y,Z Vertex 2 {m}
  0, 6.01, 2.423816,                      !- X,Y,Z Vertex 3 {m}
  0, 7.84, 2.423816;                      !- X,Y,Z Vertex 4 {m}

OS:SubSurface,
  {ad354a3b-cc6f-40d1-8d55-e534a6c3f5c9}, !- Handle
  Perimeter_ZN_4_wall_west_Window_2,      !- Name
  FixedWindow,                            !- Sub Surface Type
  {02a10984-0851-4378-96b9-a19f2688b1c3}, !- Construction Name
  {2ade360e-6647-442c-a132-21f39f188492}, !- Surface Name
  ,                                       !- Outside Boundary Condition Object
  ,                                       !- View Factor to Ground
  ,                                       !- Frame and Divider Name
  ,                                       !- Multiplier
  ,                                       !- Number of Vertices
  0, 12.45, 0.900816,                     !- X,Y,Z Vertex 1 {m}
  0, 10.62, 0.900816,                     !- X,Y,Z Vertex 2 {m}
  0, 10.62, 2.423816,                     !- X,Y,Z Vertex 3 {m}
  0, 12.45, 2.423816;                     !- X,Y,Z Vertex 4 {m}

OS:SubSurface,
  {3ab093ed-145d-4867-b480-6a1887a90d5d}, !- Handle
  Perimeter_ZN_4_wall_west_Window_1,      !- Name
  FixedWindow,                            !- Sub Surface Type
  {02a10984-0851-4378-96b9-a19f2688b1c3}, !- Construction Name
  {2ade360e-6647-442c-a132-21f39f188492}, !- Surface Name
  ,                                       !- Outside Boundary Condition Object
  ,                                       !- View Factor to Ground
  ,                                       !- Frame and Divider Name
  ,                                       !- Multiplier
  ,                                       !- Number of Vertices
  0, 17.07, 0.900816,                     !- X,Y,Z Vertex 1 {m}
  0, 15.24, 0.900816,                     !- X,Y,Z Vertex 2 {m}
  0, 15.24, 2.423816,                     !- X,Y,Z Vertex 3 {m}
  0, 17.07, 2.423816;                     !- X,Y,Z Vertex 4 {m}

OS:Surface,
  {ad2df92c-12bb-454d-a346-b90a09b93834}, !- Handle
  Perimeter_ZN_4_envelope_1,              !- Name
  Floor,                                  !- Surface Type
  {d1aed55a-24d8-413e-ad71-26ef71c66ea6}, !- Construction Name
  {d29432b7-1e21-4bfe-b74d-353de2ca43c6}, !- Space Name
  Ground,                                 !- Outside Boundary Condition
  ,                                       !- Outside Boundary Condition Object
  NoSun,                                  !- Sun Exposure
  NoWind,                                 !- Wind Exposure
  ,                                       !- View Factor to Ground
  ,                                       !- Number of Vertices
  -0, 18.46, -0.1,                        !- X,Y,Z Vertex 1 {m}
  5, 13.46, -0.1,                         !- X,Y,Z Vertex 2 {m}
  5, 5, -0.1,                             !- X,Y,Z Vertex 3 {m}
  -0, 0, -0.1;                            !- X,Y,Z Vertex 4 {m}

OS:Surface,
  {3767cbf8-1c53-4ffb-90f8-a89b72e5b905}, !- Handle
  Perimeter_ZN_4_envelope_2,              !- Name
  RoofCeiling,                            !- Surface Type
  {67e00338-0c08-437b-91e5-0513368ce0f6}, !- Construction Name
  {d29432b7-1e21-4bfe-b74d-353de2ca43c6}, !- Space Name
  Outdoors,                               !- Outside Boundary Condition
  ,                                       !- Outside Boundary Condition Object
  SunExposed,                             !- Sun Exposure
  WindExposed,                            !- Wind Exposure
  ,                                       !- View Factor to Ground
  ,                                       !- Number of Vertices
  5, 13.46, 3.05795,                      !- X,Y,Z Vertex 1 {m}
  -0, 18.46, 3.05795,                     !- X,Y,Z Vertex 2 {m}
  -0, 0, 3.05795,                         !- X,Y,Z Vertex 3 {m}
  5, 5, 3.05795;                          !- X,Y,Z Vertex 4 {m}

OS:Surface,
  {cfe50448-5837-469a-acbd-4552b7299d06}, !- Handle
  Perimeter_ZN_4_envelope_3,              !- Name
  Wall,                                   !- Surface Type
  {f93debc6-d1e5-4594-b16a-8f4352e60fb9}, !- Construction Name
  {d29432b7-1e21-4bfe-b74d-353de2ca43c6}, !- Space Name
  Outdoors,                               !- Outside Boundary Condition
  ,                                       !- Outside Boundary Condition Object
  SunExposed,                             !- Sun Exposure
  WindExposed,                            !- Wind Exposure
  ,                                       !- View Factor to Ground
  ,                                       !- Number of Vertices
  -0, 0, -0.1,                            !- X,Y,Z Vertex 1 {m}
  5, 5, -0.1,                             !- X,Y,Z Vertex 2 {m}
  5, 5, 3.05795,                          !- X,Y,Z Vertex 3 {m}
  -0, 0, 3.05795;                         !- X,Y,Z Vertex 4 {m}

OS:Surface,
  {9128b59a-5b7a-4d6d-98a5-0e9a5224cfbf}, !- Handle
  Perimeter_ZN_4_envelope_4,              !- Name
  Wall,                                   !- Surface Type
  {f93debc6-d1e5-4594-b16a-8f4352e60fb9}, !- Construction Name
  {d29432b7-1e21-4bfe-b74d-353de2ca43c6}, !- Space Name
  Outdoors,                               !- Outside Boundary Condition
  ,                                       !- Outside Boundary Condition Object
  SunExposed,                             !- Sun Exposure
  WindExposed,                            !- Wind Exposure
  ,                                       !- View Factor to Ground
  ,                                       !- Number of Vertices
  5, 13.46, -0.1,                         !- X,Y,Z Vertex 1 {m}
  -0, 18.46, -0.1,                        !- X,Y,Z Vertex 2 {m}
  -0, 18.46, 3.05795,                     !- X,Y,Z Vertex 3 {m}
  5, 13.46, 3.05795;                      !- X,Y,Z Vertex 4 {m}

OS:Surface,
  {ed48a9a0-679d-4289-9790-2acf44006fba}, !- Handle
  Perimeter_ZN_4_envelope_5,              !- Name
  Wall,                                   !- Surface Type
  {f93debc6-d1e5-4594-b16a-8f4352e60fb9}, !- Construction Name
  {d29432b7-1e21-4bfe-b74d-353de2ca43c6}, !- Space Name
  Outdoors,                               !- Outside Boundary Condition
  ,                                       !- Outside Boundary Condition Object
  SunExposed,                             !- Sun Exposure
  WindExposed,                            !- Wind Exposure
  ,                                       !- View Factor to Ground
  ,                                       !- Number of Vertices
  5, 5, -0.1,                             !- X,Y,Z Vertex 1 {m}
  5, 13.46, -0.1,                         !- X,Y,Z Vertex 2 {m}
  5, 13.46, 3.05795,                      !- X,Y,Z Vertex 3 {m}
  5, 5, 3.05795;                          !- X,Y,Z Vertex 4 {m}

OS:DesignSpecification:OutdoorAir,
  {bd853fba-3595-4414-a696-e1c7e2c5ea1f}, !- Handle
  Design Specification Outdoor Air 1,     !- Name
  ,                                       !- Outdoor Air Method
  ,                                       !- Outdoor Air Flow per Person {m3/s-person}
  0.0024,                                 !- Outdoor Air Flow per Floor Area {m3/s-m2}
  ,                                       !- Outdoor Air Flow Rate {m3/s}
  ,                                       !- Outdoor Air Flow Air Changes per Hour {1/hr}
  ;                                       !- Outdoor Air Flow Rate Fraction Schedule Name

OS:Space,
  {0baa30a7-62f3-4062-8dbb-801120e7c16f}, !- Handle
  Perimeter_ZN_2,                         !- Name
  ,                                       !- Space Type Name
  ,                                       !- Default Construction Set Name
  ,                                       !- Default Schedule Set Name
  ,                                       !- Direction of Relative North {deg}
  ,                                       !- X Origin {m}
  ,                                       !- Y Origin {m}
  ,                                       !- Z Origin {m}
  {79dbbc85-7b48-424b-890d-84d3940c4951}, !- Building Story Name
  {daf71967-7e38-4bd7-8d71-1d632fe593c0}, !- Thermal Zone Name
  ,                                       !- Part of Total Floor Area
  {42f5f9ff-d076-40b5-983e-5c2872cbac1d}, !- Design Specification Outdoor Air Object Name
  ,                                       !- Building Unit Name
  ,                                       !- Volume {m3}
  ,                                       !- Ceiling Height {m}
  Autocalculate;                          !- Floor Area {m2}

OS:ThermalZone,
  {daf71967-7e38-4bd7-8d71-1d632fe593c0}, !- Handle
  Perimeter_ZN_2_tzone,                   !- Name
  ,                                       !- Multiplier
  ,                                       !- Ceiling Height {m}
  ,                                       !- Volume {m3}
  ,                                       !- Floor Area {m2}
  ,                                       !- Zone Inside Convection Algorithm
  ,                                       !- Zone Outside Convection Algorithm
  ,                                       !- Zone Conditioning Equipment List Name
  {3a877149-e31e-479c-af83-96863d753028}, !- Zone Air Inlet Port List
  {0590a7c8-3f05-4c6b-ba9d-098ad2751242}, !- Zone Air Exhaust Port List
  {46d7a857-e693-48dd-9a56-3c71af75cb74}, !- Zone Air Node Name
  {9f94fd24-afa6-467a-9aff-63dfd0aa7c5e}, !- Zone Return Air Port List
  ,                                       !- Primary Daylighting Control Name
  ,                                       !- Fraction of Zone Controlled by Primary Daylighting Control
  ,                                       !- Secondary Daylighting Control Name
  ,                                       !- Fraction of Zone Controlled by Secondary Daylighting Control
  ,                                       !- Illuminance Map Name
  ,                                       !- Group Rendering Name
  {7ac333ca-779f-4b43-9842-4e737fbe2383}, !- Thermostat Name
  No;                                     !- Use Ideal Air Loads

OS:Node,
  {5806fb0c-b4d0-4cfa-b408-1048315f7459}, !- Handle
  Perimeter_ZN_2_tzone Zone Air Node,     !- Name
  {46d7a857-e693-48dd-9a56-3c71af75cb74}, !- Inlet Port
  ;                                       !- Outlet Port

OS:Connection,
  {46d7a857-e693-48dd-9a56-3c71af75cb74}, !- Handle
  {daf71967-7e38-4bd7-8d71-1d632fe593c0}, !- Source Object
  11,                                     !- Outlet Port
  {5806fb0c-b4d0-4cfa-b408-1048315f7459}, !- Target Object
  2;                                      !- Inlet Port

OS:PortList,
  {3a877149-e31e-479c-af83-96863d753028}, !- Handle
  {daf71967-7e38-4bd7-8d71-1d632fe593c0}; !- HVAC Component

OS:PortList,
  {0590a7c8-3f05-4c6b-ba9d-098ad2751242}, !- Handle
  {daf71967-7e38-4bd7-8d71-1d632fe593c0}; !- HVAC Component

OS:PortList,
  {9f94fd24-afa6-467a-9aff-63dfd0aa7c5e}, !- Handle
  {daf71967-7e38-4bd7-8d71-1d632fe593c0}; !- HVAC Component

OS:Sizing:Zone,
  {a26be967-6508-4a02-b244-7d3dec60edb5}, !- Handle
  {daf71967-7e38-4bd7-8d71-1d632fe593c0}, !- Zone or ZoneList Name
  SupplyAirTemperature,                   !- Zone Cooling Design Supply Air Temperature Input Method
  14,                                     !- Zone Cooling Design Supply Air Temperature {C}
  11.11,                                  !- Zone Cooling Design Supply Air Temperature Difference {deltaC}
  SupplyAirTemperature,                   !- Zone Heating Design Supply Air Temperature Input Method
  40,                                     !- Zone Heating Design Supply Air Temperature {C}
  11.11,                                  !- Zone Heating Design Supply Air Temperature Difference {deltaC}
  0.0085,                                 !- Zone Cooling Design Supply Air Humidity Ratio {kg-H2O/kg-air}
  0.008,                                  !- Zone Heating Design Supply Air Humidity Ratio {kg-H2O/kg-air}
  ,                                       !- Zone Heating Sizing Factor
  ,                                       !- Zone Cooling Sizing Factor
  DesignDay,                              !- Cooling Design Air Flow Method
  ,                                       !- Cooling Design Air Flow Rate {m3/s}
  ,                                       !- Cooling Minimum Air Flow per Zone Floor Area {m3/s-m2}
  ,                                       !- Cooling Minimum Air Flow {m3/s}
  ,                                       !- Cooling Minimum Air Flow Fraction
  DesignDay,                              !- Heating Design Air Flow Method
  ,                                       !- Heating Design Air Flow Rate {m3/s}
  ,                                       !- Heating Maximum Air Flow per Zone Floor Area {m3/s-m2}
  ,                                       !- Heating Maximum Air Flow {m3/s}
  ,                                       !- Heating Maximum Air Flow Fraction
  No,                                     !- Account for Dedicated Outdoor Air System
  NeutralSupplyAir,                       !- Dedicated Outdoor Air System Control Strategy
  autosize,                               !- Dedicated Outdoor Air Low Setpoint Temperature for Design {C}
  autosize,                               !- Dedicated Outdoor Air High Setpoint Temperature for Design {C}
  Sensible Load Only No Latent Load,      !- Zone Load Sizing Method
  HumidityRatioDifference,                !- Zone Latent Cooling Design Supply Air Humidity Ratio Input Method