
OS:Version,
  {f52f23d6-d0fa-4494-a1da-8d550615847e}, !- Handle
  3.7.0;                                  !- Version Identifier

OS:WeatherFile,
  {f9a63e87-1aca-4167-91ab-6bb73089d266}, !- Handle
  SINGAPORE,                              !- City
  -,                                      !- State Province Region
  SGP,                                    !- Country
  IWEC Data,                              !- Data Source
  486980,                                 !- WMO Number
  1.37,                                   !- Latitude {deg}
  103.98,                                 !- Longitude {deg}
  8,                                      !- Time Zone {hr}
  16,                                     !- Elevation {m}
  /home/chenkianwee/kianwee_work/code_workspace/aeco_data_manipulation/epw/SGP_Singapore.486980_IWEC/SGP_Singapore.486980_IWEC.epw, !- Url
  A1E22486,                               !- Checksum
  ,                                       !- Start Date Actual Year
  Sunday;                                 !- Start Day of Week

OS:Site,
  {0e037947-61c7-48f1-991a-6bba7801754c}, !- Handle
  SINGAPORE_-_SGP,                        !- Name
  1.37,                                   !- Latitude {deg}
  103.98,                                 !- Longitude {deg}
  8,                                      !- Time Zone {hr}
  16,                                     !- Elevation {m}
  ;                                       !- Terrain

OS:Site:GroundTemperature:BuildingSurface,
  {811d70be-7acc-4ccd-a2de-f6f2c447b461}, !- Handle
  27.55,                                  !- January Ground Temperature {C}
  28.03,                                  !- February Ground Temperature {C}
  28.32,                                  !- March Ground Temperature {C}
  28.42,                                  !- April Ground Temperature {C}
  28.26,                                  !- May Ground Temperature {C}
  27.88,                                  !- June Ground Temperature {C}
  27.4,                                   !- July Ground Temperature {C}
  26.92,                                  !- August Ground Temperature {C}
  26.59,                                  !- September Ground Temperature {C}
  26.51,                                  !- October Ground Temperature {C}
  26.68,                                  !- November Ground Temperature {C}
  27.05;                                  !- December Ground Temperature {C}

OS:Site:WaterMainsTemperature,
  {d86c17c1-7ef0-41bc-b25d-ae38e3acd39f}, !- Handle
  Correlation,                            !- Calculation Method
  ,                                       !- Temperature Schedule Name
  27.4638926940639,                       !- Annual Average Outdoor Air Temperature {C}
  2.12050504824542;                       !- Maximum Difference In Monthly Average Outdoor Air Temperatures {deltaC}

OS:SizingPeriod:DesignDay,
  {ae091ea1-8be8-4856-a281-3d39e40f1b29}, !- Handle
  SINGAPORE Ann Htg 99.6% Condns DB,      !- Name
  23,                                     !- Maximum Dry-Bulb Temperature {C}
  0,                                      !- Daily Dry-Bulb Temperature Range {deltaC}
  101133,                                 !- Barometric Pressure {Pa}
  2,                                      !- Wind Speed {m/s}
  320,                                    !- Wind Direction {deg}
  0,                                      !- Sky Clearness
  No,                                     !- Rain Indicator
  No,                                     !- Snow Indicator
  21,                                     !- Day of Month
  12,                                     !- Month
  WinterDesignDay,                        !- Day Type
  No,                                     !- Daylight Saving Time Indicator
  Wetbulb,                                !- Humidity Condition Type
  ,                                       !- Humidity Condition Day Schedule Name
  23,                                     !- Wetbulb or DewPoint at Maximum Dry-Bulb {C}
  ,                                       !- Humidity Ratio at Maximum Dry-Bulb {kgWater/kgDryAir}
  ,                                       !- Enthalpy at Maximum Dry-Bulb {J/kg}
  DefaultMultipliers,                     !- Dry-Bulb Temperature Range Modifier Type
  ,                                       !- Dry-Bulb Temperature Range Modifier Day Schedule Name
  ASHRAEClearSky;                         !- Solar Model Indicator

OS:SizingPeriod:DesignDay,
  {12084744-6539-4e08-80b6-0bfe32385a22}, !- Handle
  SINGAPORE Ann Clg .4% Condns DB=>MWB,   !- Name
  33.2,                                   !- Maximum Dry-Bulb Temperature {C}
  5.5,                                    !- Daily Dry-Bulb Temperature Range {deltaC}
  101133,                                 !- Barometric Pressure {Pa}
  4.1,                                    !- Wind Speed {m/s}
  30,                                     !- Wind Direction {deg}
  ,                                       !- Sky Clearness
  No,                                     !- Rain Indicator
  No,                                     !- Snow Indicator
  21,                                     !- Day of Month
  6,                                      !- Month
  SummerDesignDay,                        !- Day Type
  No,                                     !- Daylight Saving Time Indicator
  Wetbulb,                                !- Humidity Condition Type
  ,                                       !- Humidity Condition Day Schedule Name
  26.4,                                   !- Wetbulb or DewPoint at Maximum Dry-Bulb {C}
  ,                                       !- Humidity Ratio at Maximum Dry-Bulb {kgWater/kgDryAir}
  ,                                       !- Enthalpy at Maximum Dry-Bulb {J/kg}
  DefaultMultipliers,                     !- Dry-Bulb Temperature Range Modifier Type
  ,                                       !- Dry-Bulb Temperature Range Modifier Day Schedule Name
  ASHRAETau,                              !- Solar Model Indicator
  ,                                       !- Beam Solar Day Schedule Name
  ,                                       !- Diffuse Solar Day Schedule Name
  0.494,                                  !- ASHRAE Clear Sky Optical Depth for Beam Irradiance {dimensionless}
  2.03;                                   !- ASHRAE Clear Sky Optical Depth for Diffuse Irradiance {dimensionless}

OS:Material:NoMass,
  {b4850fb4-8984-4d0c-998e-b16646d34960}, !- Handle
  Material No Mass 1,                     !- Name
  Rough,                                  !- Roughness
  0.36,                                   !- Thermal Resistance {m2-K/W}
  0.9,                                    !- Thermal Absorptance
  0.7,                                    !- Solar Absorptance
  0.7;                                    !- Visible Absorptance

OS:Material,
  {14831a5d-cac7-423b-b6a7-78334d0d1b49}, !- Handle
  Material 1,                             !- Name
  Smooth,                                 !- Roughness
  0.009,                                  !- Thickness {m}
  0.58,                                   !- Conductivity {W/m-K}
  1900,                                   !- Density {kg/m3}
  1400;                                   !- Specific Heat {J/kg-K}

OS:Construction,
  {9afb001f-0130-485c-9366-f5e742f7e3fa}, !- Handle
  wall_construction,                      !- Name
  ,                                       !- Surface Rendering Name
  {b4850fb4-8984-4d0c-998e-b16646d34960}, !- Layer 1
  {14831a5d-cac7-423b-b6a7-78334d0d1b49}; !- Layer 2

OS:WindowMaterial:SimpleGlazingSystem,
  {dd32bd52-45b6-4048-974e-7b78dc10d368}, !- Handle
  Window Material Simple Glazing System 1, !- Name
  1.4,                                    !- U-Factor {W/m2-K}
  0.62,                                   !- Solar Heat Gain Coefficient
  0.78;                                   !- Visible Transmittance

OS:Construction,
  {275e7e0e-8818-4ebf-b3c9-b2d9f7249a97}, !- Handle
  win_construction,                       !- Name
  ,                                       !- Surface Rendering Name
  {dd32bd52-45b6-4048-974e-7b78dc10d368}; !- Layer 1

OS:BuildingStory,
  {13841a24-7958-4aa3-939d-d91b2687f806}, !- Handle
  Mezzanine Level,                        !- Name
  ,                                       !- Nominal Z Coordinate {m}
  ,                                       !- Nominal Floor to Floor Height {m}
  ,                                       !- Default Construction Set Name
  ,                                       !- Default Schedule Set Name
  ;                                       !- Group Rendering Name

OS:ThermalZone,
  {9563eb62-4dee-4ea9-9062-7eae0cb00b40}, !- Handle
  Thermal Zone 1,                         !- Name
  ,                                       !- Multiplier
  ,                                       !- Ceiling Height {m}
  ,                                       !- Volume {m3}
  ,                                       !- Floor Area {m2}
  ,                                       !- Zone Inside Convection Algorithm
  ,                                       !- Zone Outside Convection Algorithm
  ,                                       !- Zone Conditioning Equipment List Name
  {e0e4d439-0f41-45d7-81c1-2db841fe1a30}, !- Zone Air Inlet Port List
  {14ec0607-cc4a-4075-8da0-3f77c3aeb341}, !- Zone Air Exhaust Port List
  {97a3b4eb-b858-4427-9d51-761d2aca5418}, !- Zone Air Node Name
  {13c58f7c-aba6-4652-a724-5613179f7f02}, !- Zone Return Air Port List
  ,                                       !- Primary Daylighting Control Name
  ,                                       !- Fraction of Zone Controlled by Primary Daylighting Control
  ,                                       !- Secondary Daylighting Control Name
  ,                                       !- Fraction of Zone Controlled by Secondary Daylighting Control
  ,                                       !- Illuminance Map Name
  ,                                       !- Group Rendering Name
  {76b4589c-03b9-44f1-b29d-ed0db6f58c23}, !- Thermostat Name
  No;                                     !- Use Ideal Air Loads

OS:Node,
  {cbcbfc2a-ad9e-4ced-a226-0e53b109c6dd}, !- Handle
  Node 1,                                 !- Name
  {97a3b4eb-b858-4427-9d51-761d2aca5418}, !- Inlet Port
  ;                                       !- Outlet Port

OS:Connection,
  {97a3b4eb-b858-4427-9d51-761d2aca5418}, !- Handle
  {9563eb62-4dee-4ea9-9062-7eae0cb00b40}, !- Source Object
  11,                                     !- Outlet Port
  {cbcbfc2a-ad9e-4ced-a226-0e53b109c6dd}, !- Target Object
  2;                                      !- Inlet Port

OS:PortList,
  {e0e4d439-0f41-45d7-81c1-2db841fe1a30}, !- Handle
  {9563eb62-4dee-4ea9-9062-7eae0cb00b40}; !- HVAC Component

OS:PortList,
  {14ec0607-cc4a-4075-8da0-3f77c3aeb341}, !- Handle
  {9563eb62-4dee-4ea9-9062-7eae0cb00b40}; !- HVAC Component

OS:PortList,
  {13c58f7c-aba6-4652-a724-5613179f7f02}, !- Handle
  {9563eb62-4dee-4ea9-9062-7eae0cb00b40}; !- HVAC Component

OS:Sizing:Zone,
  {a40e7839-2520-499f-82c0-deb2008143f4}, !- Handle
  {9563eb62-4dee-4ea9-9062-7eae0cb00b40}, !- Zone or ZoneList Name
  SupplyAirTemperature,                   !- Zone Cooling Design Supply Air Temperature Input Method
  14,                                     !- Zone Cooling Design Supply Air Temperature {C}
  11.11,                                  !- Zone Cooling Design Supply Air Temperature Difference {deltaC}
  SupplyAirTemperature,                   !- Zone Heating Design Supply Air Temperature Input Method
  40,                                     !- Zone Heating Design Supply Air Temperature {C}
  11.11,                                  !- Zone Heating Design Supply Air Temperature Difference {deltaC}
  0.0085,                                 !- Zone Cooling Design Supply Air Humidity Ratio {kg-H2O/kg-air}
  0.008,                                  !- Zone Heating Design Supply Air Humidity Ratio {kg-H2O/kg-air}
  ,                                       !- Zone Heating Sizing Factor
  ,                                       !- Zone Cooling Sizing Factor
  DesignDay,                              !- Cooling Design Air Flow Method
  ,                                       !- Cooling Design Air Flow Rate {m3/s}
  ,                                       !- Cooling Minimum Air Flow per Zone Floor Area {m3/s-m2}
  ,                                       !- Cooling Minimum Air Flow {m3/s}
  ,                                       !- Cooling Minimum Air Flow Fraction
  DesignDay,                              !- Heating Design Air Flow Method
  ,                                       !- Heating Design Air Flow Rate {m3/s}
  ,                                       !- Heating Maximum Air Flow per Zone Floor Area {m3/s-m2}
  ,                                       !- Heating Maximum Air Flow {m3/s}
  ,                                       !- Heating Maximum Air Flow Fraction
  No,                                     !- Account for Dedicated Outdoor Air System
  NeutralSupplyAir,                       !- Dedicated Outdoor Air System Control Strategy
  autosize,                               !- Dedicated Outdoor Air Low Setpoint Temperature for Design {C}
  autosize,                               !- Dedicated Outdoor Air High Setpoint Temperature for Design {C}
  Sensible Load Only No Latent Load,      !- Zone Load Sizing Method
  HumidityRatioDifference,                !- Zone Latent Cooling Design Supply Air Humidity Ratio Input Method
  ,                                       !- Zone Dehumidification Design Supply Air Humidity Ratio {kgWater/kgDryAir}
  0.005,                                  !- Zone Cooling Design Supply Air Humidity Ratio Difference {kgWater/kgDryAir}
  HumidityRatioDifference,                !- Zone Latent Heating Design Supply Air Humidity Ratio Input Method
  ,                                       !- Zone Humidification Design Supply Air Humidity Ratio {kgWater/kgDryAir}
  0.005;                                  !- Zone Humidification Design Supply Air Humidity Ratio Difference {kgWater/kgDryAir}

OS:ZoneHVAC:EquipmentList,
  {39af7b1e-6cab-454d-a279-7ec87b40988b}, !- Handle
  Zone HVAC Equipment List 1,             !- Name
  {9563eb62-4dee-4ea9-9062-7eae0cb00b40}; !- Thermal Zone

OS:Space,
  {e54510c5-d3dc-4ada-b3c4-99e7603b4bac}, !- Handle
  Space,                                  !- Name
  ,                                       !- Space Type Name
  ,                                       !- Default Construction Set Name
  ,                                       !- Default Schedule Set Name
  ,                                       !- Direction of Relative North {deg}
  ,                                       !- X Origin {m}
  ,                                       !- Y Origin {m}
  ,                                       !- Z Origin {m}
  {13841a24-7958-4aa3-939d-d91b2687f806}, !- Building Story Name
  {9563eb62-4dee-4ea9-9062-7eae0cb00b40}, !- Thermal Zone Name
  ,                                       !- Part of Total Floor Area
  {49a33685-fbf6-4a2c-a614-f9485507b466}, !- Design Specification Outdoor Air Object Name
  ,                                       !- Building Unit Name
  ,                                       !- Volume {m3}
  ,                                       !- Ceiling Height {m}
  Autocalculate;                          !- Floor Area {m2}

OS:Surface,
  {efa2eba1-8459-453d-9ac1-07ad1c945ff6}, !- Handle
  Surface 1,                              !- Name
  Wall,                                   !- Surface Type
  {9afb001f-0130-485c-9366-f5e742f7e3fa}, !- Construction Name
  {e54510c5-d3dc-4ada-b3c4-99e7603b4bac}, !- Space Name
  Outdoors,                               !- Outside Boundary Condition
  ,                                       !- Outside Boundary Condition Object
  SunExposed,                             !- Sun Exposure
  WindExposed,                            !- Wind Exposure
  ,                                       !- View Factor to Ground
  ,                                       !- Number of Vertices
  0.2, 2.8, 3,                            !- X,Y,Z Vertex 1 {m}
  0.2, 2.8, 0,                            !- X,Y,Z Vertex 2 {m}
  0.2, 0.2, 0,                            !- X,Y,Z Vertex 3 {m}
  0.2, 0.2, 3;                            !- X,Y,Z Vertex 4 {m}

OS:Surface,
  {3dc3f671-ecc9-4c64-9939-1db5b3e4b3e4}, !- Handle
  Surface 2,                              !- Name
  Wall,                                   !- Surface Type
  {9afb001f-0130-485c-9366-f5e742f7e3fa}, !- Construction Name
  {e54510c5-d3dc-4ada-b3c4-99e7603b4bac}, !- Space Name
  Outdoors,                               !- Outside Boundary Condition
  ,                                       !- Outside Boundary Condition Object
  SunExposed,                             !- Sun Exposure
  WindExposed,                            !- Wind Exposure
  ,                                       !- View Factor to Ground
  ,                                       !- Number of Vertices
  0.2, 0.2, 3,                            !- X,Y,Z Vertex 1 {m}
  0.2, 0.2, 0,                            !- X,Y,Z Vertex 2 {m}
  3.8, 0.2, 0,                            !- X,Y,Z Vertex 3 {m}
  3.8, 0.2, 3;                            !- X,Y,Z Vertex 4 {m}

OS:SubSurface,
  {1fe54367-6087-456e-b392-2c068ed786fd}, !- Handle
  Sub Surface 1,                          !- Name
  FixedWindow,                            !- Sub Surface Type
  {275e7e0e-8818-4ebf-b3c9-b2d9f7249a97}, !- Construction Name
  {3dc3f671-ecc9-4c64-9939-1db5b3e4b3e4}, !- Surface Name
  ,                                       !- Outside Boundary Condition Object
  ,                                       !- View Factor to Ground
  ,                                       !- Frame and Divider Name
  ,                                       !- Multiplier
  ,                                       !- Number of Vertices
  0.6, 0.2, 1,                            !- X,Y,Z Vertex 1 {m}
  1.6, 0.2, 1,                            !- X,Y,Z Vertex 2 {m}
  1.6, 0.2, 2,                            !- X,Y,Z Vertex 3 {m}
  0.6, 0.2, 2;                            !- X,Y,Z Vertex 4 {m}

OS:Surface,
  {6a1d333b-2789-42b1-ac6c-f679c9980dbe}, !- Handle
  Surface 3,                              !- Name
  Floor,                                  !- Surface Type
  {9afb001f-0130-485c-9366-f5e742f7e3fa}, !- Construction Name
  {e54510c5-d3dc-4ada-b3c4-99e7603b4bac}, !- Space Name
  Ground,                                 !- Outside Boundary Condition
  ,                                       !- Outside Boundary Condition Object
  NoSun,                                  !- Sun Exposure
  NoWind,                                 !- Wind Exposure
  ,                                       !- View Factor to Ground
  ,                                       !- Number of Vertices
  3.8, 0.2, 0,                            !- X,Y,Z Vertex 1 {m}
  0.2, 0.2, 0,                            !- X,Y,Z Vertex 2 {m}
  0.2, 2.8, 0,                            !- X,Y,Z Vertex 3 {m}
  3.8, 2.8, 0;                            !- X,Y,Z Vertex 4 {m}

OS:Surface,
  {d75e780d-518e-4fdf-bf46-1ce0f04db1c0}, !- Handle
  Surface 4,                              !- Name
  RoofCeiling,                            !- Surface Type
  {9afb001f-0130-485c-9366-f5e742f7e3fa}, !- Construction Name
  {e54510c5-d3dc-4ada-b3c4-99e7603b4bac}, !- Space Name
  Outdoors,                               !- Outside Boundary Condition
  ,                                       !- Outside Boundary Condition Object
  SunExposed,                             !- Sun Exposure
  WindExposed,                            !- Wind Exposure
  ,                                       !- View Factor to Ground
  ,                                       !- Number of Vertices
  0.2, 0.2, 3,                            !- X,Y,Z Vertex 1 {m}
  3.8, 0.2, 3,                            !- X,Y,Z Vertex 2 {m}
  3.8, 2.8, 3,                            !- X,Y,Z Vertex 3 {m}
  0.2, 2.8, 3;                            !- X,Y,Z Vertex 4 {m}

OS:Surface,
  {e40b31d1-9c08-4888-ab9f-8dd8a1f3f804}, !- Handle
  Surface 5,                              !- Name
  Wall,                                   !- Surface Type
  {9afb001f-0130-485c-9366-f5e742f7e3fa}, !- Construction Name
  {e54510c5-d3dc-4ada-b3c4-99e7603b4bac}, !- Space Name
  Outdoors,                               !- Outside Boundary Condition
  ,                                       !- Outside Boundary Condition Object
  SunExposed,                             !- Sun Exposure
  WindExposed,                            !- Wind Exposure
  ,                                       !- View Factor to Ground
  ,                                       !- Number of Vertices
  3.8, 2.8, 3,                            !- X,Y,Z Vertex 1 {m}
  3.8, 2.8, 0,                            !- X,Y,Z Vertex 2 {m}
  0.2, 2.8, 0,                            !- X,Y,Z Vertex 3 {m}
  0.2, 2.8, 3;                            !- X,Y,Z Vertex 4 {m}

OS:Surface,
  {fb60ea95-a80e-44a4-b07d-32333485a449}, !- Handle
  Surface 6,                              !- Name
  Wall,                                   !- Surface Type
  {9afb001f-0130-485c-9366-f5e742f7e3fa}, !- Construction Name
  {e54510c5-d3dc-4ada-b3c4-99e7603b4bac}, !- Space Name
  Outdoors,                               !- Outside Boundary Condition
  ,                                       !- Outside Boundary Condition Object
  SunExposed,                             !- Sun Exposure
  WindExposed,                            !- Wind Exposure
  ,                                       !- View Factor to Ground
  ,                                       !- Number of Vertices
  3.8, 0.2, 3,                            !- X,Y,Z Vertex 1 {m}
  3.8, 0.2, 0,                            !- X,Y,Z Vertex 2 {m}
  3.8, 2.8, 0,                            !- X,Y,Z Vertex 3 {m}
  3.8, 2.8, 3;                            !- X,Y,Z Vertex 4 {m}

OS:ScheduleTypeLimits,
  {4fc4b398-5ebf-4904-a546-8a8515cd2c14}, !- Handle
  fractional,                             !- Name
  0,                                      !- Lower Limit Value
  1,                                      !- Upper Limit Value
  Continuous;                             !- Numeric Type

OS:ScheduleTypeLimits,
  {95cbe8ba-4af8-444e-a87b-3b450d19f9e5}, !- Handle
  temperature,                            !- Name
  -60,                                    !- Lower Limit Value
  200,                                    !- Upper Limit Value
  Continuous,                             !- Numeric Type
  Temperature;                            !- Unit Type

OS:ScheduleTypeLimits,
  {c2aa7440-8a2d-4e5c-9ec8-714bea8e92e3}, !- Handle
  activity,                               !- Name
  0,                                      !- Lower Limit Value
  ,                                       !- Upper Limit Value
  Continuous,                             !- Numeric Type
  ActivityLevel;                          !- Unit Type

OS:Schedule:Day,
  {1bb7c471-ee40-4448-b008-8a9fe73aa868}, !- Handle
  weekday occupancy,                      !- Name
  {4fc4b398-5ebf-4904-a546-8a8515cd2c14}, !- Schedule Type Limits Name
  ,                                       !- Interpolate to Timestep
  9,                                      !- Hour 1
  0,                                      !- Minute 1
  0,                                      !- Value Until Time 1
  17,                                     !- Hour 2
  0,                                      !- Minute 2
  1,                                      !- Value Until Time 2
  24,                                     !- Hour 3
  0,                                      !- Minute 3
  0;                                      !- Value Until Time 3

OS:Schedule:Ruleset,
  {c87061cd-8d78-4cd6-a3bc-29d5d7e264f7}, !- Handle
  occupancy schedule,                     !- Name
  {4fc4b398-5ebf-4904-a546-8a8515cd2c14}, !- Schedule Type Limits Name
  {bbde2c54-010e-4d7d-aa86-a743043b8c55}; !- Default Day Schedule Name

OS:Schedule:Day,
  {bbde2c54-010e-4d7d-aa86-a743043b8c55}, !- Handle
  Schedule Day 1,                         !- Name
  {4fc4b398-5ebf-4904-a546-8a8515cd2c14}, !- Schedule Type Limits Name
  ,                                       !- Interpolate to Timestep
  24,                                     !- Hour 1
  0,                                      !- Minute 1
  0;                                      !- Value Until Time 1

OS:Schedule:Rule,
  {1df20f10-d98f-459d-91de-424ddd169316}, !- Handle
  occupancy weekdays,                     !- Name
  {c87061cd-8d78-4cd6-a3bc-29d5d7e264f7}, !- Schedule Ruleset Name
  0,                                      !- Rule Order
  {bdfd4fe7-01cd-4e74-97f6-fd7e734819bc}, !- Day Schedule Name
  ,                                       !- Apply Sunday
  Yes,                                    !- Apply Monday
  Yes,                                    !- Apply Tuesday
  Yes,                                    !- Apply Wednesday
  Yes,                                    !- Apply Thursday
  Yes;                                    !- Apply Friday

OS:Schedule:Day,
  {bdfd4fe7-01cd-4e74-97f6-fd7e734819bc}, !- Handle
  weekday occupancy 1,                    !- Name
  {4fc4b398-5ebf-4904-a546-8a8515cd2c14}, !- Schedule Type Limits Name
  ,                                       !- Interpolate to Timestep
  9,                                      !- Hour 1
  0,                                      !- Minute 1
  0,                                      !- Value Until Time 1
  17,                                     !- Hour 2
  0,                                      !- Minute 2
  1,                                      !- Value Until Time 2
  24,                                     !- Hour 3
  0,                                      !- Minute 3
  0;                                      !- Value Until Time 3

OS:Schedule:Day,
  {7fde62c1-8a66-4c2e-8b39-a5e099e1b60c}, !- Handle
  weekday activity,                       !- Name
  {c2aa7440-8a2d-4e5c-9ec8-714bea8e92e3}, !- Schedule Type Limits Name
  ,                                       !- Interpolate to Timestep
  24,                                     !- Hour 1
  0,                                      !- Minute 1
  70;                                     !- Value Until Time 1

OS:Schedule:Ruleset,
  {449135b7-96b7-4847-b062-b5dd4454305e}, !- Handle
  activity schedule,                      !- Name
  {c2aa7440-8a2d-4e5c-9ec8-714bea8e92e3}, !- Schedule Type Limits Name
  {867a2c45-2d6b-41f4-91a2-d61348cd894f}, !- Default Day Schedule Name
  {b0ac491e-0864-4cd8-a1e8-2fca4f8b3015}, !- Summer Design Day Schedule Name
  {35314589-5fae-4e3a-b5e8-647676c42464}, !- Winter Design Day Schedule Name
  {db40aa28-9a39-41bc-a105-1df8566fcee5}, !- Holiday Schedule Name
  {f224ff2a-fe2b-4a31-9647-687215dd948c}, !- Custom Day 1 Schedule Name
  {f8cf6bb3-196e-4dfc-b5bf-a1ea2cce2e9f}; !- Custom Day 2 Schedule Name

OS:Schedule:Day,
  {867a2c45-2d6b-41f4-91a2-d61348cd894f}, !- Handle
  Schedule Day 2,                         !- Name
  {c2aa7440-8a2d-4e5c-9ec8-714bea8e92e3}, !- Schedule Type Limits Name
  ,                                       !- Interpolate to Timestep
  24,                                     !- Hour 1
  0,                                      !- Minute 1
  0;                                      !- Value Until Time 1

OS:Schedule:Day,
  {b0ac491e-0864-4cd8-a1e8-2fca4f8b3015}, !- Handle
  weekday activity 1,                     !- Name
  {c2aa7440-8a2d-4e5c-9ec8-714bea8e92e3}, !- Schedule Type Limits Name
  ,                                       !- Interpolate to Timestep
  24,                                     !- Hour 1
  0,                                      !- Minute 1
  70;                                     !- Value Until Time 1

OS:Schedule:Day,
  {35314589-5fae-4e3a-b5e8-647676c42464}, !- Handle
  weekday activity 2,                     !- Name
  {c2aa7440-8a2d-4e5c-9ec8-714bea8e92e3}, !- Schedule Type Limits Name
  ,                                       !- Interpolate to Timestep
  24,                                     !- Hour 1
  0,                                      !- Minute 1
  70;                                     !- Value Until Time 1

OS:Schedule:Day,
  {db40aa28-9a39-41bc-a105-1df8566fcee5}, !- Handle
  weekday activity 3,                     !- Name
  {c2aa7440-8a2d-4e5c-9ec8-714bea8e92e3}, !- Schedule Type Limits Name
  ,                                       !- Interpolate to Timestep
  24,                                     !- Hour 1
  0,                                      !- Minute 1
  70;                                     !- Value Until Time 1

OS:Schedule:Day,
  {f224ff2a-fe2b-4a31-9647-687215dd948c}, !- Handle
  weekday activity 4,                     !- Name
  {c2aa7440-8a2d-4e5c-9ec8-714bea8e92e3}, !- Schedule Type Limits Name
  ,                                       !- Interpolate to Timestep
  24,                                     !- Hour 1
  0,                                      !- Minute 1
  70;                                     !- Value Until Time 1

OS:Schedule:Day,
  {f8cf6bb3-196e-4dfc-b5bf-a1ea2cce2e9f}, !- Handle
  weekday activity 5,                     !- Name
  {c2aa7440-8a2d-4e5c-9ec8-714bea8e92e3}, !- Schedule Type Limits Name
  ,                                       !- Interpolate to Timestep
  24,                                     !- Hour 1
  0,                                      !- Minute 1
  70;                                     !- Value Until Time 1

OS:Schedule:Rule,
  {e53b2410-e37c-4a9f-a70a-3d2d2ab2f38a}, !- Handle
  activity weekdays,                      !- Name
  {449135b7-96b7-4847-b062-b5dd4454305e}, !- Schedule Ruleset Name
  0,                                      !- Rule Order
  {b9b4768b-e7b0-4bb0-9f57-001944e2aae2}, !- Day Schedule Name
  Yes,                                    !- Apply Sunday