
OS:Version,
  {1925612d-8df0-4346-abfe-b8805af1a82a}, !- Handle
  3.7.0;                                  !- Version Identifier

OS:Material,
  {34b17b80-1d4b-4ab9-98b5-e31b67dfdaf6}, !- Handle
  Material 1,                             !- Name
  Smooth,                                 !- Roughness
  0.0254,                                 !- Thickness {m}
  0.72,                                   !- Conductivity {W/m-K}
  1856,                                   !- Density {kg/m3}
  840;                                    !- Specific Heat {J/kg-K}

OS:Material,
  {2512ff1b-f371-4b9b-9f46-d4f8bc33cb1b}, !- Handle
  Material 2,                             !- Name
  MediumSmooth,                           !- Roughness
  0.0159,                                 !- Thickness {m}
  0.16,                                   !- Conductivity {W/m-K}
  800,                                    !- Density {kg/m3}
  1090;                                   !- Specific Heat {J/kg-K}

OS:Material:NoMass,
  {1c42304f-e4f5-4b4f-9b32-3a4c6a743799}, !- Handle
  Material No Mass 1,                     !- Name
  MediumSmooth,                           !- Roughness
  1.06783369996193,                       !- Thermal Resistance {m2-K/W}
  0.9,                                    !- Thermal Absorptance
  0.7,                                    !- Solar Absorptance
  0.7;                                    !- Visible Absorptance

OS:Material,
  {584fe12c-0fa0-4705-b538-202980a5a9bb}, !- Handle
  Material 3,                             !- Name
  MediumSmooth,                           !- Roughness
  0.0159,                                 !- Thickness {m}
  0.16,                                   !- Conductivity {W/m-K}
  800,                                    !- Density {kg/m3}
  1090;                                   !- Specific Heat {J/kg-K}

OS:Construction,
  {85e89f76-5047-4c96-a657-62064c06deb7}, !- Handle
  res_ext_wall_grd,                       !- Name
  ,                                       !- Surface Rendering Name
  {34b17b80-1d4b-4ab9-98b5-e31b67dfdaf6}, !- Layer 1
  {2512ff1b-f371-4b9b-9f46-d4f8bc33cb1b}, !- Layer 2
  {1c42304f-e4f5-4b4f-9b32-3a4c6a743799}, !- Layer 3
  {584fe12c-0fa0-4705-b538-202980a5a9bb}; !- Layer 4

OS:Material,
  {f68496a3-e5aa-497c-b9f2-5d911288e551}, !- Handle
  Material 4,                             !- Name
  MediumSmooth,                           !- Roughness
  0.0159,                                 !- Thickness {m}
  0.16,                                   !- Conductivity {W/m-K}
  800,                                    !- Density {kg/m3}
  1090;                                   !- Specific Heat {J/kg-K}

OS:Material:NoMass,
  {301c0650-b982-4691-a50d-9f6fb186716f}, !- Handle
  Material No Mass 2,                     !- Name
  MediumSmooth,                           !- Roughness
  6.23478687961654,                       !- Thermal Resistance {m2-K/W}
  0.9,                                    !- Thermal Absorptance
  0.7,                                    !- Solar Absorptance
  0.7;                                    !- Visible Absorptance

OS:Construction,
  {b35d13f3-594e-4f97-8d09-aed570818bc0}, !- Handle
  res_roof_floor,                         !- Name
  ,                                       !- Surface Rendering Name
  {f68496a3-e5aa-497c-b9f2-5d911288e551}, !- Layer 1
  {301c0650-b982-4691-a50d-9f6fb186716f}; !- Layer 2

OS:Material,
  {f942a841-f195-4ddb-b25e-2061fcd55eee}, !- Handle
  Material 5,                             !- Name
  Smooth,                                 !- Roughness
  0.0127,                                 !- Thickness {m}
  0.16,                                   !- Conductivity {W/m-K}
  800,                                    !- Density {kg/m3}
  1090;                                   !- Specific Heat {J/kg-K}

OS:Material,
  {a37ba2a0-d7df-4697-86e1-89a2c33989c4}, !- Handle
  Material 6,                             !- Name
  Smooth,                                 !- Roughness
  0.0127,                                 !- Thickness {m}
  0.16,                                   !- Conductivity {W/m-K}
  800,                                    !- Density {kg/m3}
  1090;                                   !- Specific Heat {J/kg-K}

OS:Construction,
  {9f698ada-d02e-4a05-b5ea-c6e4422e4bca}, !- Handle
  int_wall,                               !- Name
  ,                                       !- Surface Rendering Name
  {f942a841-f195-4ddb-b25e-2061fcd55eee}, !- Layer 1
  {a37ba2a0-d7df-4697-86e1-89a2c33989c4}; !- Layer 2

OS:WindowMaterial:SimpleGlazingSystem,
  {c21d9822-5164-4fe7-ad62-023779b83932}, !- Handle
  Window Material Simple Glazing System 1, !- Name
  2.86184304,                             !- U-Factor {W/m2-K}
  0.229,                                  !- Solar Heat Gain Coefficient
  0.2519;                                 !- Visible Transmittance

OS:Construction,
  {73ec6dea-3d14-4f07-b191-e0bf2a578fe8}, !- Handle
  Window_U_0.504_SHGC_North_0.229,        !- Name
  ,                                       !- Surface Rendering Name
  {c21d9822-5164-4fe7-ad62-023779b83932}; !- Layer 1

OS:Material:NoMass,
  {b21f0539-970b-4053-8aca-9b59d58c7c3f}, !- Handle
  Material No Mass 3,                     !- Name
  MediumRough,                            !- Roughness
  0.475973498005059,                      !- Thermal Resistance {m2-K/W}
  0.9,                                    !- Thermal Absorptance
  0.7,                                    !- Solar Absorptance
  0.7;                                    !- Visible Absorptance

OS:Construction,
  {f709f1bf-e19a-472b-bbdb-1f93bb3d97c7}, !- Handle
  Swinging Door_con,                      !- Name
  ,                                       !- Surface Rendering Name
  {b21f0539-970b-4053-8aca-9b59d58c7c3f}; !- Layer 1

OS:BuildingStory,
  {73765eba-e63c-4467-91bc-c2df53314701}, !- Handle
  Ground_level,                           !- Name
  ,                                       !- Nominal Z Coordinate {m}
  ,                                       !- Nominal Floor to Floor Height {m}
  ,                                       !- Default Construction Set Name
  ,                                       !- Default Schedule Set Name
  ;                                       !- Group Rendering Name

OS:BuildingStory,
  {ac254cfd-4ccb-4850-b2d8-ddbba9d54f7f}, !- Handle
  Attic_level,                            !- Name
  ,                                       !- Nominal Z Coordinate {m}
  ,                                       !- Nominal Floor to Floor Height {m}
  ,                                       !- Default Construction Set Name
  ,                                       !- Default Schedule Set Name
  ;                                       !- Group Rendering Name

OS:Space,
  {46f1dcbd-de04-4e58-a8b4-a795e84f0231}, !- Handle
  Perimeter_ZN_4,                         !- Name
  ,                                       !- Space Type Name
  ,                                       !- Default Construction Set Name
  ,                                       !- Default Schedule Set Name
  ,                                       !- Direction of Relative North {deg}
  ,                                       !- X Origin {m}
  ,                                       !- Y Origin {m}
  ,                                       !- Z Origin {m}
  {73765eba-e63c-4467-91bc-c2df53314701}, !- Building Story Name
  {ace63708-7cbd-4377-a7e4-a9efb4e2fe16}, !- Thermal Zone Name
  ,                                       !- Part of Total Floor Area
  {570e56a7-3c0b-45a1-a2b6-1ba2351edcd2}, !- Design Specification Outdoor Air Object Name
  ,                                       !- Building Unit Name
  ,                                       !- Volume {m3}
  ,                                       !- Ceiling Height {m}
  Autocalculate;                          !- Floor Area {m2}

OS:ThermalZone,
  {ace63708-7cbd-4377-a7e4-a9efb4e2fe16}, !- Handle
  Perimeter_ZN_4_tzone,                   !- Name
  ,                                       !- Multiplier
  ,                                       !- Ceiling Height {m}
  ,                                       !- Volume {m3}
  ,                                       !- Floor Area {m2}
  ,                                       !- Zone Inside Convection Algorithm
  ,                                       !- Zone Outside Convection Algorithm
  ,                                       !- Zone Conditioning Equipment List Name
  {ec387073-0f67-422d-b863-1c45ca27549b}, !- Zone Air Inlet Port List
  {c15919b5-ca04-4cd5-a2f3-301eec1795bd}, !- Zone Air Exhaust Port List
  {a1d9bc99-3d38-416a-8ad8-e71745c33e25}, !- Zone Air Node Name
  {ea00b0d9-90ec-4269-9026-57101a478772}, !- Zone Return Air Port List
  ,                                       !- Primary Daylighting Control Name
  ,                                       !- Fraction of Zone Controlled by Primary Daylighting Control
  ,                                       !- Secondary Daylighting Control Name
  ,                                       !- Fraction of Zone Controlled by Secondary Daylighting Control
  ,                                       !- Illuminance Map Name
  ,                                       !- Group Rendering Name
  {b8efb874-1c6d-42c9-9445-73cabc37e159}, !- Thermostat Name
  No;                                     !- Use Ideal Air Loads

OS:Node,
  {19aa9012-cf81-481f-9fcc-bcf99c8acbd3}, !- Handle
  Node 1,                                 !- Name
  {a1d9bc99-3d38-416a-8ad8-e71745c33e25}, !- Inlet Port
  ;                                       !- Outlet Port

OS:Connection,
  {a1d9bc99-3d38-416a-8ad8-e71745c33e25}, !- Handle
  {ace63708-7cbd-4377-a7e4-a9efb4e2fe16}, !- Source Object
  11,                                     !- Outlet Port
  {19aa9012-cf81-481f-9fcc-bcf99c8acbd3}, !- Target Object
  2;                                      !- Inlet Port

OS:PortList,
  {ec387073-0f67-422d-b863-1c45ca27549b}, !- Handle
  {ace63708-7cbd-4377-a7e4-a9efb4e2fe16}; !- HVAC Component

OS:PortList,
  {c15919b5-ca04-4cd5-a2f3-301eec1795bd}, !- Handle
  {ace63708-7cbd-4377-a7e4-a9efb4e2fe16}; !- HVAC Component

OS:PortList,
  {ea00b0d9-90ec-4269-9026-57101a478772}, !- Handle
  {ace63708-7cbd-4377-a7e4-a9efb4e2fe16}; !- HVAC Component

OS:Sizing:Zone,
  {9fdcee2b-d3cf-4971-adae-489c7d75f2a8}, !- Handle
  {ace63708-7cbd-4377-a7e4-a9efb4e2fe16}, !- Zone or ZoneList Name
  SupplyAirTemperature,                   !- Zone Cooling Design Supply Air Temperature Input Method
  14,                                     !- Zone Cooling Design Supply Air Temperature {C}
  11.11,                                  !- Zone Cooling Design Supply Air Temperature Difference {deltaC}
  SupplyAirTemperature,                   !- Zone Heating Design Supply Air Temperature Input Method
  40,                                     !- Zone Heating Design Supply Air Temperature {C}
  11.11,                                  !- Zone Heating Design Supply Air Temperature Difference {deltaC}
  0.0085,                                 !- Zone Cooling Design Supply Air Humidity Ratio {kg-H2O/kg-air}
  0.008,                                  !- Zone Heating Design Supply Air Humidity Ratio {kg-H2O/kg-air}
  ,                                       !- Zone Heating Sizing Factor
  ,                                       !- Zone Cooling Sizing Factor
  DesignDay,                              !- Cooling Design Air Flow Method
  ,                                       !- Cooling Design Air Flow Rate {m3/s}
  ,                                       !- Cooling Minimum Air Flow per Zone Floor Area {m3/s-m2}
  ,                                       !- Cooling Minimum Air Flow {m3/s}
  ,                                       !- Cooling Minimum Air Flow Fraction
  DesignDay,                              !- Heating Design Air Flow Method
  ,                                       !- Heating Design Air Flow Rate {m3/s}
  ,                                       !- Heating Maximum Air Flow per Zone Floor Area {m3/s-m2}
  ,                                       !- Heating Maximum Air Flow {m3/s}
  ,                                       !- Heating Maximum Air Flow Fraction
  No,                                     !- Account for Dedicated Outdoor Air System
  NeutralSupplyAir,                       !- Dedicated Outdoor Air System Control Strategy
  autosize,                               !- Dedicated Outdoor Air Low Setpoint Temperature for Design {C}
  autosize,                               !- Dedicated Outdoor Air High Setpoint Temperature for Design {C}
  Sensible Load Only No Latent Load,      !- Zone Load Sizing Method
  HumidityRatioDifference,                !- Zone Latent Cooling Design Supply Air Humidity Ratio Input Method
  ,                                       !- Zone Dehumidification Design Supply Air Humidity Ratio {kgWater/kgDryAir}
  0.005,                                  !- Zone Cooling Design Supply Air Humidity Ratio Difference {kgWater/kgDryAir}
  HumidityRatioDifference,                !- Zone Latent Heating Design Supply Air Humidity Ratio Input Method
  ,                                       !- Zone Humidification Design Supply Air Humidity Ratio {kgWater/kgDryAir}
  0.005;                                  !- Zone Humidification Design Supply Air Humidity Ratio Difference {kgWater/kgDryAir}

OS:ZoneHVAC:EquipmentList,
  {152d1078-5558-4e2c-89a9-13981bc2d369}, !- Handle
  Zone HVAC Equipment List 1,             !- Name
  {ace63708-7cbd-4377-a7e4-a9efb4e2fe16}; !- Thermal Zone

OS:Surface,
  {5771149d-f28c-4339-a5a4-bbe2273f1e90}, !- Handle
  Perimeter_ZN_4_envelope_0,              !- Name
  Wall,                                   !- Surface Type
  {85e89f76-5047-4c96-a657-62064c06deb7}, !- Construction Name
  {46f1dcbd-de04-4e58-a8b4-a795e84f0231}, !- Space Name
  Outdoors,                               !- Outside Boundary Condition
  ,                                       !- Outside Boundary Condition Object
  SunExposed,                             !- Sun Exposure
  WindExposed,                            !- Wind Exposure
  ,                                       !- View Factor to Ground
  ,                                       !- Number of Vertices
  -0, 18.46, -0.1,                        !- X,Y,Z Vertex 1 {m}
  -0, 0, -0.1,                            !- X,Y,Z Vertex 2 {m}
  -0, 0, 3.05795,                         !- X,Y,Z Vertex 3 {m}
  -0, 18.46, 3.05795;                     !- X,Y,Z Vertex 4 {m}

OS:SubSurface,
  {07388e4c-1d45-4494-9f65-685de588a4d1}, !- Handle
  Perimeter_ZN_4_wall_west_Window_4,      !- Name
  FixedWindow,                            !- Sub Surface Type
  {73ec6dea-3d14-4f07-b191-e0bf2a578fe8}, !- Construction Name
  {5771149d-f28c-4339-a5a4-bbe2273f1e90}, !- Surface Name
  ,                                       !- Outside Boundary Condition Object
  ,                                       !- View Factor to Ground
  ,                                       !- Frame and Divider Name
  ,                                       !- Multiplier
  ,                                       !- Number of Vertices
  0, 3.22, 0.900816,                      !- X,Y,Z Vertex 1 {m}
  0, 1.39, 0.900816,                      !- X,Y,Z Vertex 2 {m}
  0, 1.39, 2.423816,                      !- X,Y,Z Vertex 3 {m}
  0, 3.22, 2.423816;                      !- X,Y,Z Vertex 4 {m}

OS:SubSurface,
  {68385d2f-6f5f-4a77-9971-698f6e0988ae}, !- Handle
  Perimeter_ZN_4_wall_west_Window_3,      !- Name
  FixedWindow,                            !- Sub Surface Type
  {73ec6dea-3d14-4f07-b191-e0bf2a578fe8}, !- Construction Name
  {5771149d-f28c-4339-a5a4-bbe2273f1e90}, !- Surface Name
  ,                                       !- Outside Boundary Condition Object
  ,                                       !- View Factor to Ground
  ,                                       !- Frame and Divider Name
  ,                                       !- Multiplier
  ,                                       !- Number of Vertices
  0, 7.84, 0.900816,                      !- X,Y,Z Vertex 1 {m}
  0, 6.01, 0.900816,                      !- X,Y,Z Vertex 2 {m}
  0, 6.01, 2.423816,                      !- X,Y,Z Vertex 3 {m}
  0, 7.84, 2.423816;                      !- X,Y,Z Vertex 4 {m}

OS:SubSurface,
  {99032ef1-9e0c-482c-be12-1e3cd47bbba7}, !- Handle
  Perimeter_ZN_4_wall_west_Window_2,      !- Name
  FixedWindow,                            !- Sub Surface Type
  {73ec6dea-3d14-4f07-b191-e0bf2a578fe8}, !- Construction Name
  {5771149d-f28c-4339-a5a4-bbe2273f1e90}, !- Surface Name
  ,                                       !- Outside Boundary Condition Object
  ,                                       !- View Factor to Ground
  ,                                       !- Frame and Divider Name
  ,                                       !- Multiplier
  ,                                       !- Number of Vertices
  0, 12.45, 0.900816,                     !- X,Y,Z Vertex 1 {m}
  0, 10.62, 0.900816,                     !- X,Y,Z Vertex 2 {m}
  0, 10.62, 2.423816,                     !- X,Y,Z Vertex 3 {m}
  0, 12.45, 2.423816;                     !- X,Y,Z Vertex 4 {m}

OS:SubSurface,
  {3d85e5a5-8686-4f53-8054-e8f802113107}, !- Handle
  Perimeter_ZN_4_wall_west_Window_1,      !- Name
  FixedWindow,                            !- Sub Surface Type
  {73ec6dea-3d14-4f07-b191-e0bf2a578fe8}, !- Construction Name
  {5771149d-f28c-4339-a5a4-bbe2273f1e90}, !- Surface Name
  ,                                       !- Outside Boundary Condition Object
  ,                                       !- View Factor to Ground
  ,                                       !- Frame and Divider Name
  ,                                       !- Multiplier
  ,                                       !- Number of Vertices
  0, 17.07, 0.900816,                     !- X,Y,Z Vertex 1 {m}
  0, 15.24, 0.900816,                     !- X,Y,Z Vertex 2 {m}
  0, 15.24, 2.423816,                     !- X,Y,Z Vertex 3 {m}
  0, 17.07, 2.423816;                     !- X,Y,Z Vertex 4 {m}

OS:Surface,
  {90cfbd5e-ac83-42be-9bd7-0b83f8c75d5c}, !- Handle
  Perimeter_ZN_4_envelope_1,              !- Name
  Floor,                                  !- Surface Type
  {85e89f76-5047-4c96-a657-62064c06deb7}, !- Construction Name
  {46f1dcbd-de04-4e58-a8b4-a795e84f0231}, !- Space Name
  Ground,                                 !- Outside Boundary Condition
  ,                                       !- Outside Boundary Condition Object
  NoSun,                                  !- Sun Exposure
  NoWind,                                 !- Wind Exposure
  ,                                       !- View Factor to Ground
  ,                                       !- Number of Vertices
  -0, 18.46, -0.1,                        !- X,Y,Z Vertex 1 {m}
  5, 13.46, -0.1,                         !- X,Y,Z Vertex 2 {m}
  5, 5, -0.1,                             !- X,Y,Z Vertex 3 {m}
  -0, 0, -0.1;                            !- X,Y,Z Vertex 4 {m}

OS:Surface,
  {888f7d55-0614-4a48-98a8-d5af28d8a3a4}, !- Handle
  Perimeter_ZN_4_envelope_2,              !- Name
  RoofCeiling,                            !- Surface Type
  {b35d13f3-594e-4f97-8d09-aed570818bc0}, !- Construction Name
  {46f1dcbd-de04-4e58-a8b4-a795e84f0231}, !- Space Name
  Outdoors,                               !- Outside Boundary Condition
  ,                                       !- Outside Boundary Condition Object
  SunExposed,                             !- Sun Exposure
  WindExposed,                            !- Wind Exposure
  ,                                       !- View Factor to Ground
  ,                                       !- Number of Vertices
  5, 13.46, 3.05795,                      !- X,Y,Z Vertex 1 {m}
  -0, 18.46, 3.05795,                     !- X,Y,Z Vertex 2 {m}
  -0, 0, 3.05795,                         !- X,Y,Z Vertex 3 {m}
  5, 5, 3.05795;                          !- X,Y,Z Vertex 4 {m}

OS:Surface,
  {99f1f670-a2fb-4ff1-bcb1-65e87fd16dfb}, !- Handle
  Perimeter_ZN_4_envelope_3,              !- Name
  Wall,                                   !- Surface Type
  {9f698ada-d02e-4a05-b5ea-c6e4422e4bca}, !- Construction Name
  {46f1dcbd-de04-4e58-a8b4-a795e84f0231}, !- Space Name
  Outdoors,                               !- Outside Boundary Condition
  ,                                       !- Outside Boundary Condition Object
  SunExposed,                             !- Sun Exposure
  WindExposed,                            !- Wind Exposure
  ,                                       !- View Factor to Ground
  ,                                       !- Number of Vertices
  -0, 0, -0.1,                            !- X,Y,Z Vertex 1 {m}
  5, 5, -0.1,                             !- X,Y,Z Vertex 2 {m}
  5, 5, 3.05795,                          !- X,Y,Z Vertex 3 {m}
  -0, 0, 3.05795;                         !- X,Y,Z Vertex 4 {m}

OS:Surface,
  {911cf4ad-d646-4277-922a-44bc24b524f2}, !- Handle
  Perimeter_ZN_4_envelope_4,              !- Name
  Wall,                                   !- Surface Type
  {9f698ada-d02e-4a05-b5ea-c6e4422e4bca}, !- Construction Name
  {46f1dcbd-de04-4e58-a8b4-a795e84f0231}, !- Space Name
  Outdoors,                               !- Outside Boundary Condition
  ,                                       !- Outside Boundary Condition Object
  SunExposed,                             !- Sun Exposure
  WindExposed,                            !- Wind Exposure
  ,                                       !- View Factor to Ground
  ,                                       !- Number of Vertices
  5, 13.46, -0.1,                         !- X,Y,Z Vertex 1 {m}
  -0, 18.46, -0.1,                        !- X,Y,Z Vertex 2 {m}
  -0, 18.46, 3.05795,                     !- X,Y,Z Vertex 3 {m}
  5, 13.46, 3.05795;                      !- X,Y,Z Vertex 4 {m}

OS:Surface,
  {1e8e925c-11c1-4bfc-afe0-101f41e6562f}, !- Handle
  Perimeter_ZN_4_envelope_5,              !- Name
  Wall,                                   !- Surface Type
  {9f698ada-d02e-4a05-b5ea-c6e4422e4bca}, !- Construction Name
  {46f1dcbd-de04-4e58-a8b4-a795e84f0231}, !- Space Name
  Outdoors,                               !- Outside Boundary Condition
  ,                                       !- Outside Boundary Condition Object
  SunExposed,                             !- Sun Exposure
  WindExposed,                            !- Wind Exposure
  ,                                       !- View Factor to Ground
  ,                                       !- Number of Vertices
  5, 5, -0.1,                             !- X,Y,Z Vertex 1 {m}
  5, 13.46, -0.1,                         !- X,Y,Z Vertex 2 {m}
  5, 13.46, 3.05795,                      !- X,Y,Z Vertex 3 {m}
  5, 5, 3.05795;                          !- X,Y,Z Vertex 4 {m}

OS:DesignSpecification:OutdoorAir,
  {570e56a7-3c0b-45a1-a2b6-1ba2351edcd2}, !- Handle
  Design Specification Outdoor Air 1,     !- Name
  ,                                       !- Outdoor Air Method
  ,                                       !- Outdoor Air Flow per Person {m3/s-person}
  0.0024,                                 !- Outdoor Air Flow per Floor Area {m3/s-m2}
  ,                                       !- Outdoor Air Flow Rate {m3/s}
  ,                                       !- Outdoor Air Flow Air Changes per Hour {1/hr}
  ;                                       !- Outdoor Air Flow Rate Fraction Schedule Name

OS:Space,
  {3002fc4e-f6ce-4bec-930c-bddd0c6fdd7b}, !- Handle
  Perimeter_ZN_2,                         !- Name
  ,                                       !- Space Type Name
  ,                                       !- Default Construction Set Name
  ,                                       !- Default Schedule Set Name
  ,                                       !- Direction of Relative North {deg}
  ,                                       !- X Origin {m}
  ,                                       !- Y Origin {m}
  ,                                       !- Z Origin {m}
  {73765eba-e63c-4467-91bc-c2df53314701}, !- Building Story Name
  {f40d0b06-4168-4aa8-8155-a8b2817090f6}, !- Thermal Zone Name
  ,                                       !- Part of Total Floor Area
  {6fd4a0b8-45f0-4f4b-b0f8-2a3ee3c06538}, !- Design Specification Outdoor Air Object Name
  ,                                       !- Building Unit Name
  ,                                       !- Volume {m3}
  ,                                       !- Ceiling Height {m}
  Autocalculate;                          !- Floor Area {m2}

OS:ThermalZone,
  {f40d0b06-4168-4aa8-8155-a8b2817090f6}, !- Handle
  Perimeter_ZN_2_tzone,                   !- Name
  ,                                       !- Multiplier
  ,                                       !- Ceiling Height {m}
  ,                                       !- Volume {m3}
  ,                                       !- Floor Area {m2}
  ,                                       !- Zone Inside Convection Algorithm
  ,                                       !- Zone Outside Convection Algorithm
  ,                                       !- Zone Conditioning Equipment List Name
  {5d23c8da-0d9b-4182-9ea3-bbb231b1e2d8}, !- Zone Air Inlet Port List
  {3d57a0bc-763a-4fc4-8117-7301cc86eb08}, !- Zone Air Exhaust Port List
  {714418c3-e71e-4c71-b2c8-c8d19e313400}, !- Zone Air Node Name
  {2b0ed5b7-3872-4129-b860-6aab8defcfe1}, !- Zone Return Air Port List
  ,                                       !- Primary Daylighting Control Name
  ,                                       !- Fraction of Zone Controlled by Primary Daylighting Control
  ,                                       !- Secondary Daylighting Control Name
  ,                                       !- Fraction of Zone Controlled by Secondary Daylighting Control
  ,                                       !- Illuminance Map Name
  ,                                       !- Group Rendering Name
  {90406a97-637a-4a62-b03c-03afb7cb8224}, !- Thermostat Name
  No;                                     !- Use Ideal Air Loads

OS:Node,
  {88d70f05-344e-481f-ae1c-d9f798cfe287}, !- Handle
  Node 2,                                 !- Name
  {714418c3-e71e-4c71-b2c8-c8d19e313400}, !- Inlet Port
  ;                                       !- Outlet Port

OS:Connection,
  {714418c3-e71e-4c71-b2c8-c8d19e313400}, !- Handle
  {f40d0b06-4168-4aa8-8155-a8b2817090f6}, !- Source Object
  11,                                     !- Outlet Port
  {88d70f05-344e-481f-ae1c-d9f798cfe287}, !- Target Object
  2;                                      !- Inlet Port

OS:PortList,
  {5d23c8da-0d9b-4182-9ea3-bbb231b1e2d8}, !- Handle
  {f40d0b06-4168-4aa8-8155-a8b2817090f6}; !- HVAC Component

OS:PortList,
  {3d57a0bc-763a-4fc4-8117-7301cc86eb08}, !- Handle
  {f40d0b06-4168-4aa8-8155-a8b2817090f6}; !- HVAC Component

OS:PortList,
  {2b0ed5b7-3872-4129-b860-6aab8defcfe1}, !- Handle
  {f40d0b06-4168-4aa8-8155-a8b2817090f6}; !- HVAC Component

OS:Sizing:Zone,
  {c1e80673-3a4b-4b6c-baa5-7d686d34b86a}, !- Handle
  {f40d0b06-4168-4aa8-8155-a8b2817090f6}, !- Zone or ZoneList Name
  SupplyAirTemperature,                   !- Zone Cooling Design Supply Air Temperature Input Method
  14,                                     !- Zone Cooling Design Supply Air Temperature {C}
  11.11,                                  !- Zone Cooling Design Supply Air Temperature Difference {deltaC}
  SupplyAirTemperature,                   !- Zone Heating Design Supply Air Temperature Input Method
  40,                                     !- Zone Heating Design Supply Air Temperature {C}
  11.11,                                  !- Zone Heating Design Supply Air Temperature Difference {deltaC}
  0.0085,                                 !- Zone Cooling Design Supply Air Humidity Ratio {kg-H2O/kg-air}
  0.008,                                  !- Zone Heating Design Supply Air Humidity Ratio {kg-H2O/kg-air}
  ,                                       !- Zone Heating Sizing Factor
  ,                                       !- Zone Cooling Sizing Factor
  DesignDay,                              !- Cooling Design Air Flow Method
  ,                                       !- Cooling Design Air Flow Rate {m3/s}
  ,                                       !- Cooling Minimum Air Flow per Zone Floor Area {m3/s-m2}
  ,                                       !- Cooling Minimum Air Flow {m3/s}
  ,                                       !- Cooling Minimum Air Flow Fraction
  DesignDay,                              !- Heating Design Air Flow Method
  ,                                       !- Heating Design Air Flow Rate {m3/s}
  ,                                       !- Heating Maximum Air Flow per Zone Floor Area {m3/s-m2}
  ,                                       !- Heating Maximum Air Flow {m3/s}
  ,                                       !- Heating Maximum Air Flow Fraction
  No,                                     !- Account for Dedicated Outdoor Air System
  NeutralSupplyAir,                       !- Dedicated Outdoor Air System Control Strategy
  autosize,                               !- Dedicated Outdoor Air Low Setpoint Temperature for Design {C}
  autosize,                               !- Dedicated Outdoor Air High Setpoint Temperature for Design {C}
  Sensible Load Only No Latent Load,      !- Zone Load Sizing Method
  HumidityRatioDifference,                !- Zone Latent Cooling Design Supply Air Humidity Ratio Input Method
  ,                                       !- Zone Dehumidification Design Supply Air Humidity Ratio {kgWater/kgDryAir}
  0.005,                                  !- Zone Cooling Design Supply Air Humidity Ratio Difference {kgWater/kgDryAir}
  HumidityRatioDifference,                !- Zone Latent Heating Design Supply Air Humidity Ratio Input Method
  ,                                       !- Zone Humidification Design Supply Air Humidity Ratio {kgWater/kgDryAir}