
OS:Version,
  {6bda94f2-c465-42bd-b16b-51003d0095ed}, !- Handle
  3.7.0;                                  !- Version Identifier

OS:Material,
  {b4f6b7cc-765c-41d8-b02a-4428fbd5bfad}, !- Handle
  Material 1,                             !- Name
  Smooth,                                 !- Roughness
  0.0254,                                 !- Thickness {m}
  0.72,                                   !- Conductivity {W/m-K}
  1856,                                   !- Density {kg/m3}
  840;                                    !- Specific Heat {J/kg-K}

OS:Material,
  {1b39aeaf-cc6e-4429-b86c-7151d154dc79}, !- Handle
  Material 2,                             !- Name
  MediumSmooth,                           !- Roughness
  0.0159,                                 !- Thickness {m}
  0.16,                                   !- Conductivity {W/m-K}
  800,                                    !- Density {kg/m3}
  1090;                                   !- Specific Heat {J/kg-K}

OS:Material:NoMass,
  {72d0b946-4ac9-4621-afe3-d2534a466f85}, !- Handle
  Material No Mass 1,                     !- Name
  MediumSmooth,                           !- Roughness
  1.06783369996193,                       !- Thermal Resistance {m2-K/W}
  0.9,                                    !- Thermal Absorptance
  0.7,                                    !- Solar Absorptance
  0.7;                                    !- Visible Absorptance

OS:Material,
  {2d371e56-85d0-4e8b-8dd2-45199ea0d024}, !- Handle
  Material 3,                             !- Name
  MediumSmooth,                           !- Roughness
  0.0159,                                 !- Thickness {m}
  0.16,                                   !- Conductivity {W/m-K}
  800,                                    !- Density {kg/m3}
  1090;                                   !- Specific Heat {J/kg-K}

OS:Construction,
  {4d08a4c8-e530-4b2b-9455-4ae26a1eb171}, !- Handle
  res_ext_wall_grd,                       !- Name
  ,                                       !- Surface Rendering Name
  {b4f6b7cc-765c-41d8-b02a-4428fbd5bfad}, !- Layer 1
  {1b39aeaf-cc6e-4429-b86c-7151d154dc79}, !- Layer 2
  {72d0b946-4ac9-4621-afe3-d2534a466f85}, !- Layer 3
  {2d371e56-85d0-4e8b-8dd2-45199ea0d024}; !- Layer 4

OS:Material,
  {2ef9dbaf-929a-46fd-970e-25fd8e25a67d}, !- Handle
  Material 4,                             !- Name
  MediumSmooth,                           !- Roughness
  0.0159,                                 !- Thickness {m}
  0.16,                                   !- Conductivity {W/m-K}
  800,                                    !- Density {kg/m3}
  1090;                                   !- Specific Heat {J/kg-K}

OS:Material:NoMass,
  {e9846e64-0d40-4fca-8ec9-cc8a62c2812d}, !- Handle
  Material No Mass 2,                     !- Name
  MediumSmooth,                           !- Roughness
  6.23478687961654,                       !- Thermal Resistance {m2-K/W}
  0.9,                                    !- Thermal Absorptance
  0.7,                                    !- Solar Absorptance
  0.7;                                    !- Visible Absorptance

OS:Construction,
  {c36cf946-985c-47ab-a868-8528707a4bd2}, !- Handle
  res_roof_floor,                         !- Name
  ,                                       !- Surface Rendering Name
  {2ef9dbaf-929a-46fd-970e-25fd8e25a67d}, !- Layer 1
  {e9846e64-0d40-4fca-8ec9-cc8a62c2812d}; !- Layer 2

OS:Material,
  {b7fec3be-21b4-468b-847a-67b67a4d1d1f}, !- Handle
  Material 5,                             !- Name
  Smooth,                                 !- Roughness
  0.0127,                                 !- Thickness {m}
  0.16,                                   !- Conductivity {W/m-K}
  800,                                    !- Density {kg/m3}
  1090;                                   !- Specific Heat {J/kg-K}

OS:Material,
  {9c7b1397-a6f5-48a5-8fa3-b021859a201d}, !- Handle
  Material 6,                             !- Name
  Smooth,                                 !- Roughness
  0.0127,                                 !- Thickness {m}
  0.16,                                   !- Conductivity {W/m-K}
  800,                                    !- Density {kg/m3}
  1090;                                   !- Specific Heat {J/kg-K}

OS:Construction,
  {59a8a23d-08d6-441e-90e9-50a1c268a8cc}, !- Handle
  int_wall,                               !- Name
  ,                                       !- Surface Rendering Name
  {b7fec3be-21b4-468b-847a-67b67a4d1d1f}, !- Layer 1
  {9c7b1397-a6f5-48a5-8fa3-b021859a201d}; !- Layer 2

OS:WindowMaterial:SimpleGlazingSystem,
  {01a49b42-9966-47dc-843a-ae223fe54e96}, !- Handle
  Window Material Simple Glazing System 1, !- Name
  2.86184304,                             !- U-Factor {W/m2-K}
  0.229,                                  !- Solar Heat Gain Coefficient
  0.2519;                                 !- Visible Transmittance

OS:Construction,
  {712212da-4cbc-4cb5-ad74-2ee21a43dc3e}, !- Handle
  Window_U_0.504_SHGC_North_0.229,        !- Name
  ,                                       !- Surface Rendering Name
  {01a49b42-9966-47dc-843a-ae223fe54e96}; !- Layer 1

OS:Material:NoMass,
  {ea150803-1d55-4300-a297-35f7a3f8c2eb}, !- Handle
  Material No Mass 3,                     !- Name
  MediumRough,                            !- Roughness
  0.475973498005059,                      !- Thermal Resistance {m2-K/W}
  0.9,                                    !- Thermal Absorptance
  0.7,                                    !- Solar Absorptance
  0.7;                                    !- Visible Absorptance

OS:Construction,
  {286a8858-03c9-4b18-9938-63f9c8fa8584}, !- Handle
  Swinging Door_con,                      !- Name
  ,                                       !- Surface Rendering Name
  {ea150803-1d55-4300-a297-35f7a3f8c2eb}; !- Layer 1

OS:BuildingStory,
  {f78880aa-4f4f-4b38-b512-29899bf1fd99}, !- Handle
  Ground_level,                           !- Name
  ,                                       !- Nominal Z Coordinate {m}
  ,                                       !- Nominal Floor to Floor Height {m}
  ,                                       !- Default Construction Set Name
  ,                                       !- Default Schedule Set Name
  ;                                       !- Group Rendering Name

OS:BuildingStory,
  {53afbb3f-53f2-4fab-b347-d1278c756942}, !- Handle
  Attic_level,                            !- Name
  ,                                       !- Nominal Z Coordinate {m}
  ,                                       !- Nominal Floor to Floor Height {m}
  ,                                       !- Default Construction Set Name
  ,                                       !- Default Schedule Set Name
  ;                                       !- Group Rendering Name

OS:Space,
  {ce5bcde4-19e5-4e1e-bbdd-717f2cb5a9bf}, !- Handle
  Perimeter_ZN_4,                         !- Name
  ,                                       !- Space Type Name
  ,                                       !- Default Construction Set Name
  ,                                       !- Default Schedule Set Name
  ,                                       !- Direction of Relative North {deg}
  ,                                       !- X Origin {m}
  ,                                       !- Y Origin {m}
  ,                                       !- Z Origin {m}
  {f78880aa-4f4f-4b38-b512-29899bf1fd99}, !- Building Story Name
  {083fbd41-7f38-4514-a039-a5b4486a21f7}, !- Thermal Zone Name
  ,                                       !- Part of Total Floor Area
  {167bf89f-568e-455f-a09c-9bde85f54ebf}, !- Design Specification Outdoor Air Object Name
  ,                                       !- Building Unit Name
  ,                                       !- Volume {m3}
  ,                                       !- Ceiling Height {m}
  Autocalculate;                          !- Floor Area {m2}

OS:ThermalZone,
  {083fbd41-7f38-4514-a039-a5b4486a21f7}, !- Handle
  Perimeter_ZN_4_tzone,                   !- Name
  ,                                       !- Multiplier
  ,                                       !- Ceiling Height {m}
  ,                                       !- Volume {m3}
  ,                                       !- Floor Area {m2}
  ,                                       !- Zone Inside Convection Algorithm
  ,                                       !- Zone Outside Convection Algorithm
  ,                                       !- Zone Conditioning Equipment List Name
  {56b0a43c-e937-4c3a-a656-ba918fb3c400}, !- Zone Air Inlet Port List
  {5e44b84c-4521-4374-ae80-3bd98f253e04}, !- Zone Air Exhaust Port List
  {2d35fc74-638e-4f2e-862d-bb6d08dc6679}, !- Zone Air Node Name
  {173fbc76-7cab-48a2-a050-cb9a971c842e}, !- Zone Return Air Port List
  ,                                       !- Primary Daylighting Control Name
  ,                                       !- Fraction of Zone Controlled by Primary Daylighting Control
  ,                                       !- Secondary Daylighting Control Name
  ,                                       !- Fraction of Zone Controlled by Secondary Daylighting Control
  ,                                       !- Illuminance Map Name
  ,                                       !- Group Rendering Name
  {66f4f7ae-7485-4d3e-9b00-fe733013a417}, !- Thermostat Name
  No;                                     !- Use Ideal Air Loads

OS:Node,
  {cbaf491e-02ee-4670-abcd-41af6f51f8e7}, !- Handle
  Perimeter_ZN_4_tzone Zone Air Node,     !- Name
  {2d35fc74-638e-4f2e-862d-bb6d08dc6679}, !- Inlet Port
  ;                                       !- Outlet Port

OS:Connection,
  {2d35fc74-638e-4f2e-862d-bb6d08dc6679}, !- Handle
  {083fbd41-7f38-4514-a039-a5b4486a21f7}, !- Source Object
  11,                                     !- Outlet Port
  {cbaf491e-02ee-4670-abcd-41af6f51f8e7}, !- Target Object
  2;                                      !- Inlet Port

OS:PortList,
  {56b0a43c-e937-4c3a-a656-ba918fb3c400}, !- Handle
  {083fbd41-7f38-4514-a039-a5b4486a21f7}, !- HVAC Component
  {91c6e131-7121-4beb-998e-e65d6a0345bb}; !- Port 1

OS:PortList,
  {5e44b84c-4521-4374-ae80-3bd98f253e04}, !- Handle
  {083fbd41-7f38-4514-a039-a5b4486a21f7}; !- HVAC Component

OS:PortList,
  {173fbc76-7cab-48a2-a050-cb9a971c842e}, !- Handle
  {083fbd41-7f38-4514-a039-a5b4486a21f7}, !- HVAC Component
  {390bed58-083e-4927-a962-e5dcfa541b78}; !- Port 1

OS:Sizing:Zone,
  {16071cc8-7957-4f04-ba2e-96f350dfa171}, !- Handle
  {083fbd41-7f38-4514-a039-a5b4486a21f7}, !- Zone or ZoneList Name
  SupplyAirTemperature,                   !- Zone Cooling Design Supply Air Temperature Input Method
  14,                                     !- Zone Cooling Design Supply Air Temperature {C}
  11.11,                                  !- Zone Cooling Design Supply Air Temperature Difference {deltaC}
  SupplyAirTemperature,                   !- Zone Heating Design Supply Air Temperature Input Method
  40,                                     !- Zone Heating Design Supply Air Temperature {C}
  11.11,                                  !- Zone Heating Design Supply Air Temperature Difference {deltaC}
  0.0085,                                 !- Zone Cooling Design Supply Air Humidity Ratio {kg-H2O/kg-air}
  0.008,                                  !- Zone Heating Design Supply Air Humidity Ratio {kg-H2O/kg-air}
  ,                                       !- Zone Heating Sizing Factor
  ,                                       !- Zone Cooling Sizing Factor
  DesignDay,                              !- Cooling Design Air Flow Method
  ,                                       !- Cooling Design Air Flow Rate {m3/s}
  ,                                       !- Cooling Minimum Air Flow per Zone Floor Area {m3/s-m2}
  ,                                       !- Cooling Minimum Air Flow {m3/s}
  ,                                       !- Cooling Minimum Air Flow Fraction
  DesignDay,                              !- Heating Design Air Flow Method
  ,                                       !- Heating Design Air Flow Rate {m3/s}
  ,                                       !- Heating Maximum Air Flow per Zone Floor Area {m3/s-m2}
  ,                                       !- Heating Maximum Air Flow {m3/s}
  ,                                       !- Heating Maximum Air Flow Fraction
  Yes,                                    !- Account for Dedicated Outdoor Air System
  NeutralSupplyAir,                       !- Dedicated Outdoor Air System Control Strategy
  15.5555555555556,                       !- Dedicated Outdoor Air Low Setpoint Temperature for Design {C}
  21.1111111111111,                       !- Dedicated Outdoor Air High Setpoint Temperature for Design {C}
  Sensible Load Only No Latent Load,      !- Zone Load Sizing Method
  HumidityRatioDifference,                !- Zone Latent Cooling Design Supply Air Humidity Ratio Input Method
  ,                                       !- Zone Dehumidification Design Supply Air Humidity Ratio {kgWater/kgDryAir}
  0.005,                                  !- Zone Cooling Design Supply Air Humidity Ratio Difference {kgWater/kgDryAir}
  HumidityRatioDifference,                !- Zone Latent Heating Design Supply Air Humidity Ratio Input Method
  ,                                       !- Zone Humidification Design Supply Air Humidity Ratio {kgWater/kgDryAir}
  0.005;                                  !- Zone Humidification Design Supply Air Humidity Ratio Difference {kgWater/kgDryAir}

OS:ZoneHVAC:EquipmentList,
  {2467ecaf-8afb-4648-b027-7683f79f8e46}, !- Handle
  Perimeter_ZN_4_tzone Zone HVAC Equipment List, !- Name
  {083fbd41-7f38-4514-a039-a5b4486a21f7}, !- Thermal Zone
  ,                                       !- Load Distribution Scheme
  {4a7a4c1f-95b1-4f2c-8ddb-17f940d63418}, !- Zone Equipment 1
  2,                                      !- Zone Equipment Cooling Sequence 1
  2,                                      !- Zone Equipment Heating or No-Load Sequence 1
  ,                                       !- Zone Equipment Sequential Cooling Fraction Schedule Name 1
  ,                                       !- Zone Equipment Sequential Heating Fraction Schedule Name 1
  {e0124a8b-e0c9-4b5e-bed8-0e0c30f3e9ae}, !- Zone Equipment 2
  1,                                      !- Zone Equipment Cooling Sequence 2
  1,                                      !- Zone Equipment Heating or No-Load Sequence 2
  {439c46b9-83a9-4fd4-be6a-86d40b450157}, !- Zone Equipment Sequential Cooling Fraction Schedule Name 2
  {c7cf8a98-074c-409a-ba22-be7f9fd26697}; !- Zone Equipment Sequential Heating Fraction Schedule Name 2

OS:Surface,
  {20b8d1ac-ffda-4434-be36-7a986d30e855}, !- Handle
  Perimeter_ZN_4_envelope_0,              !- Name
  Wall,                                   !- Surface Type
  {4d08a4c8-e530-4b2b-9455-4ae26a1eb171}, !- Construction Name
  {ce5bcde4-19e5-4e1e-bbdd-717f2cb5a9bf}, !- Space Name
  Outdoors,                               !- Outside Boundary Condition
  ,                                       !- Outside Boundary Condition Object
  SunExposed,                             !- Sun Exposure
  WindExposed,                            !- Wind Exposure
  ,                                       !- View Factor to Ground
  ,                                       !- Number of Vertices
  -0, 18.46, -0.1,                        !- X,Y,Z Vertex 1 {m}
  -0, 0, -0.1,                            !- X,Y,Z Vertex 2 {m}
  -0, 0, 3.05795,                         !- X,Y,Z Vertex 3 {m}
  -0, 18.46, 3.05795;                     !- X,Y,Z Vertex 4 {m}

OS:SubSurface,
  {007097f0-17d9-4901-a48f-d83cefe5681c}, !- Handle
  Perimeter_ZN_4_wall_west_Window_4,      !- Name
  FixedWindow,                            !- Sub Surface Type
  {712212da-4cbc-4cb5-ad74-2ee21a43dc3e}, !- Construction Name
  {20b8d1ac-ffda-4434-be36-7a986d30e855}, !- Surface Name
  ,                                       !- Outside Boundary Condition Object
  ,                                       !- View Factor to Ground
  ,                                       !- Frame and Divider Name
  ,                                       !- Multiplier
  ,                                       !- Number of Vertices
  0, 3.22, 0.900816,                      !- X,Y,Z Vertex 1 {m}
  0, 1.39, 0.900816,                      !- X,Y,Z Vertex 2 {m}
  0, 1.39, 2.423816,                      !- X,Y,Z Vertex 3 {m}
  0, 3.22, 2.423816;                      !- X,Y,Z Vertex 4 {m}

OS:SubSurface,
  {f1b9bb93-53ae-4a3b-ba8f-d4e6bfb84d01}, !- Handle
  Perimeter_ZN_4_wall_west_Window_3,      !- Name
  FixedWindow,                            !- Sub Surface Type
  {712212da-4cbc-4cb5-ad74-2ee21a43dc3e}, !- Construction Name
  {20b8d1ac-ffda-4434-be36-7a986d30e855}, !- Surface Name
  ,                                       !- Outside Boundary Condition Object
  ,                                       !- View Factor to Ground
  ,                                       !- Frame and Divider Name
  ,                                       !- Multiplier
  ,                                       !- Number of Vertices
  0, 7.84, 0.900816,                      !- X,Y,Z Vertex 1 {m}
  0, 6.01, 0.900816,                      !- X,Y,Z Vertex 2 {m}
  0, 6.01, 2.423816,                      !- X,Y,Z Vertex 3 {m}
  0, 7.84, 2.423816;                      !- X,Y,Z Vertex 4 {m}

OS:SubSurface,
  {61d0f2e6-6ead-4540-ae54-8efe3d728f4a}, !- Handle
  Perimeter_ZN_4_wall_west_Window_2,      !- Name
  FixedWindow,                            !- Sub Surface Type
  {712212da-4cbc-4cb5-ad74-2ee21a43dc3e}, !- Construction Name
  {20b8d1ac-ffda-4434-be36-7a986d30e855}, !- Surface Name
  ,                                       !- Outside Boundary Condition Object
  ,                                       !- View Factor to Ground
  ,                                       !- Frame and Divider Name
  ,                                       !- Multiplier
  ,                                       !- Number of Vertices
  0, 12.45, 0.900816,                     !- X,Y,Z Vertex 1 {m}
  0, 10.62, 0.900816,                     !- X,Y,Z Vertex 2 {m}
  0, 10.62, 2.423816,                     !- X,Y,Z Vertex 3 {m}
  0, 12.45, 2.423816;                     !- X,Y,Z Vertex 4 {m}

OS:SubSurface,
  {7e6d9478-e030-4f6a-8930-455ca88dca1e}, !- Handle
  Perimeter_ZN_4_wall_west_Window_1,      !- Name
  FixedWindow,                            !- Sub Surface Type
  {712212da-4cbc-4cb5-ad74-2ee21a43dc3e}, !- Construction Name
  {20b8d1ac-ffda-4434-be36-7a986d30e855}, !- Surface Name
  ,                                       !- Outside Boundary Condition Object
  ,                                       !- View Factor to Ground
  ,                                       !- Frame and Divider Name
  ,                                       !- Multiplier
  ,                                       !- Number of Vertices
  0, 17.07, 0.900816,                     !- X,Y,Z Vertex 1 {m}
  0, 15.24, 0.900816,                     !- X,Y,Z Vertex 2 {m}
  0, 15.24, 2.423816,                     !- X,Y,Z Vertex 3 {m}
  0, 17.07, 2.423816;                     !- X,Y,Z Vertex 4 {m}

OS:Surface,
  {dfd5520c-4e01-4dd0-9eb7-0f74fa43331a}, !- Handle
  Perimeter_ZN_4_envelope_1,              !- Name
  Floor,                                  !- Surface Type
  {4d08a4c8-e530-4b2b-9455-4ae26a1eb171}, !- Construction Name
  {ce5bcde4-19e5-4e1e-bbdd-717f2cb5a9bf}, !- Space Name
  Ground,                                 !- Outside Boundary Condition
  ,                                       !- Outside Boundary Condition Object
  NoSun,                                  !- Sun Exposure
  NoWind,                                 !- Wind Exposure
  ,                                       !- View Factor to Ground
  ,                                       !- Number of Vertices
  -0, 18.46, -0.1,                        !- X,Y,Z Vertex 1 {m}
  5, 13.46, -0.1,                         !- X,Y,Z Vertex 2 {m}
  5, 5, -0.1,                             !- X,Y,Z Vertex 3 {m}
  -0, 0, -0.1;                            !- X,Y,Z Vertex 4 {m}

OS:Surface,
  {fbbe4475-53cd-4fe7-9d19-32672bfa7ba8}, !- Handle
  Perimeter_ZN_4_envelope_2,              !- Name
  RoofCeiling,                            !- Surface Type
  {5b6218c1-b3e8-4845-872a-9567950e0ba7}, !- Construction Name
  {ce5bcde4-19e5-4e1e-bbdd-717f2cb5a9bf}, !- Space Name
  Outdoors,                               !- Outside Boundary Condition
  ,                                       !- Outside Boundary Condition Object
  SunExposed,                             !- Sun Exposure
  WindExposed,                            !- Wind Exposure
  ,                                       !- View Factor to Ground
  ,                                       !- Number of Vertices
  5, 13.46, 3.05795,                      !- X,Y,Z Vertex 1 {m}
  -0, 18.46, 3.05795,                     !- X,Y,Z Vertex 2 {m}
  -0, 0, 3.05795,                         !- X,Y,Z Vertex 3 {m}
  5, 5, 3.05795;                          !- X,Y,Z Vertex 4 {m}

OS:Surface,
  {33096bab-7004-4d7b-ab57-aa07f15daddb}, !- Handle
  Perimeter_ZN_4_envelope_3,              !- Name
  Wall,                                   !- Surface Type
  {59a8a23d-08d6-441e-90e9-50a1c268a8cc}, !- Construction Name
  {ce5bcde4-19e5-4e1e-bbdd-717f2cb5a9bf}, !- Space Name
  Outdoors,                               !- Outside Boundary Condition
  ,                                       !- Outside Boundary Condition Object
  SunExposed,                             !- Sun Exposure
  WindExposed,                            !- Wind Exposure
  ,                                       !- View Factor to Ground
  ,                                       !- Number of Vertices
  -0, 0, -0.1,                            !- X,Y,Z Vertex 1 {m}
  5, 5, -0.1,                             !- X,Y,Z Vertex 2 {m}
  5, 5, 3.05795,                          !- X,Y,Z Vertex 3 {m}
  -0, 0, 3.05795;                         !- X,Y,Z Vertex 4 {m}

OS:Surface,
  {a31d3236-9b62-4e2a-affe-7e102bfd5067}, !- Handle
  Perimeter_ZN_4_envelope_4,              !- Name
  Wall,                                   !- Surface Type
  {59a8a23d-08d6-441e-90e9-50a1c268a8cc}, !- Construction Name
  {ce5bcde4-19e5-4e1e-bbdd-717f2cb5a9bf}, !- Space Name
  Outdoors,                               !- Outside Boundary Condition
  ,                                       !- Outside Boundary Condition Object
  SunExposed,                             !- Sun Exposure
  WindExposed,                            !- Wind Exposure
  ,                                       !- View Factor to Ground
  ,                                       !- Number of Vertices
  5, 13.46, -0.1,                         !- X,Y,Z Vertex 1 {m}
  -0, 18.46, -0.1,                        !- X,Y,Z Vertex 2 {m}
  -0, 18.46, 3.05795,                     !- X,Y,Z Vertex 3 {m}
  5, 13.46, 3.05795;                      !- X,Y,Z Vertex 4 {m}

OS:Surface,
  {5c463d3d-ca21-4575-b0d5-cdcd14087d39}, !- Handle
  Perimeter_ZN_4_envelope_5,              !- Name
  Wall,                                   !- Surface Type
  {59a8a23d-08d6-441e-90e9-50a1c268a8cc}, !- Construction Name
  {ce5bcde4-19e5-4e1e-bbdd-717f2cb5a9bf}, !- Space Name
  Outdoors,                               !- Outside Boundary Condition
  ,                                       !- Outside Boundary Condition Object
  SunExposed,                             !- Sun Exposure
  WindExposed,                            !- Wind Exposure
  ,                                       !- View Factor to Ground
  ,                                       !- Number of Vertices
  5, 5, -0.1,                             !- X,Y,Z Vertex 1 {m}
  5, 13.46, -0.1,                         !- X,Y,Z Vertex 2 {m}
  5, 13.46, 3.05795,                      !- X,Y,Z Vertex 3 {m}
  5, 5, 3.05795;                          !- X,Y,Z Vertex 4 {m}

OS:DesignSpecification:OutdoorAir,
  {167bf89f-568e-455f-a09c-9bde85f54ebf}, !- Handle
  Design Specification Outdoor Air 1,     !- Name
  ,                                       !- Outdoor Air Method
  ,                                       !- Outdoor Air Flow per Person {m3/s-person}
  0.00043,                                !- Outdoor Air Flow per Floor Area {m3/s-m2}
  ,                                       !- Outdoor Air Flow Rate {m3/s}
  ,                                       !- Outdoor Air Flow Air Changes per Hour {1/hr}
  ;                                       !- Outdoor Air Flow Rate Fraction Schedule Name

OS:Space,
  {6da388c7-2888-4831-a28b-2688dfea5de1}, !- Handle
  Perimeter_ZN_2,                         !- Name
  ,                                       !- Space Type Name
  ,                                       !- Default Construction Set Name
  ,                                       !- Default Schedule Set Name
  ,                                       !- Direction of Relative North {deg}
  ,                                       !- X Origin {m}
  ,                                       !- Y Origin {m}
  ,                                       !- Z Origin {m}
  {f78880aa-4f4f-4b38-b512-29899bf1fd99}, !- Building Story Name
  {87d44602-0270-4c41-b59c-5329e45c9e20}, !- Thermal Zone Name
  ,                                       !- Part of Total Floor Area
  {122c9076-7cfa-41ba-a72d-b70a2f184b66}, !- Design Specification Outdoor Air Object Name
  ,                                       !- Building Unit Name
  ,                                       !- Volume {m3}
  ,                                       !- Ceiling Height {m}
  Autocalculate;                          !- Floor Area {m2}

OS:ThermalZone,
  {87d44602-0270-4c41-b59c-5329e45c9e20}, !- Handle
  Perimeter_ZN_2_tzone,                   !- Name
  ,                                       !- Multiplier
  ,                                       !- Ceiling Height {m}
  ,                                       !- Volume {m3}
  ,                                       !- Floor Area {m2}
  ,                                       !- Zone Inside Convection Algorithm
  ,                                       !- Zone Outside Convection Algorithm
  ,                                       !- Zone Conditioning Equipment List Name
  {f8dd76f6-41e1-4f51-b92a-ae783f3a6040}, !- Zone Air Inlet Port List
  {2a888efb-09b9-418a-8b50-3b5f7addf3a3}, !- Zone Air Exhaust Port List
  {037d3f11-fba3-4e17-ba0e-c89394f6a10a}, !- Zone Air Node Name
  {5c7aa650-9f88-47e4-96c1-d35babf642c4}, !- Zone Return Air Port List
  ,                                       !- Primary Daylighting Control Name
  ,                                       !- Fraction of Zone Controlled by Primary Daylighting Control
  ,                                       !- Secondary Daylighting Control Name
  ,                                       !- Fraction of Zone Controlled by Secondary Daylighting Control
  ,                                       !- Illuminance Map Name
  ,                                       !- Group Rendering Name
  {b235ecbb-5eaf-42b4-82a2-6c21c9c425b3}, !- Thermostat Name
  No;                                     !- Use Ideal Air Loads

OS:Node,
  {226ec8ed-66ca-4796-b753-e496b54ffa48}, !- Handle
  Perimeter_ZN_2_tzone Zone Air Node,     !- Name
  {037d3f11-fba3-4e17-ba0e-c89394f6a10a}, !- Inlet Port
  ;                                       !- Outlet Port

OS:Connection,
  {037d3f11-fba3-4e17-ba0e-c89394f6a10a}, !- Handle
  {87d44602-0270-4c41-b59c-5329e45c9e20}, !- Source Object
  11,                                     !- Outlet Port
  {226ec8ed-66ca-4796-b753-e496b54ffa48}, !- Target Object
  2;                                      !- Inlet Port

OS:PortList,
  {f8dd76f6-41e1-4f51-b92a-ae783f3a6040}, !- Handle
  {87d44602-0270-4c41-b59c-5329e45c9e20}, !- HVAC Component
  {41a1e469-4b66-49aa-87d0-16ae9f32bfcc}; !- Port 1

OS:PortList,
  {2a888efb-09b9-418a-8b50-3b5f7addf3a3}, !- Handle
  {87d44602-0270-4c41-b59c-5329e45c9e20}; !- HVAC Component

OS:PortList,
  {5c7aa650-9f88-47e4-96c1-d35babf642c4}, !- Handle
  {87d44602-0270-4c41-b59c-5329e45c9e20}, !- HVAC Component
  {95d608c4-32f0-483a-b841-6c276b3c602f}; !- Port 1

OS:Sizing:Zone,
  {d8ef446d-7aef-4738-b7e3-df5a596e38f8}, !- Handle
  {87d44602-0270-4c41-b59c-5329e45c9e20}, !- Zone or ZoneList Name
  SupplyAirTemperature,                   !- Zone Cooling Design Supply Air Temperature Input Method
  14,                                     !- Zone Cooling Design Supply Air Temperature {C}
  11.11,                                  !- Zone Cooling Design Supply Air Temperature Difference {deltaC}
  SupplyAirTemperature,                   !- Zone Heating Design Supply Air Temperature Input Method
  40,                                     !- Zone Heating Design Supply Air Temperature {C}
  11.11,                                  !- Zone Heating Design Supply Air Temperature Difference {deltaC}
  0.0085,                                 !- Zone Cooling Design Supply Air Humidity Ratio {kg-H2O/kg-air}
  0.008,                                  !- Zone Heating Design Supply Air Humidity Ratio {kg-H2O/kg-air}
  ,                                       !- Zone Heating Sizing Factor
  ,                                       !- Zone Cooling Sizing Factor
  DesignDay,                              !- Cooling Design Air Flow Method
  ,                                       !- Cooling Design Air Flow Rate {m3/s}
  ,                                       !- Cooling Minimum Air Flow per Zone Floor Area {m3/s-m2}
  ,                                       !- Cooling Minimum Air Flow {m3/s}
  ,                                       !- Cooling Minimum Air Flow Fraction
  DesignDay,                              !- Heating Design Air Flow Method
  ,                                       !- Heating Design Air Flow Rate {m3/s}
  ,                                       !- Heating Maximum Air Flow per Zone Floor Area {m3/s-m2}
  ,                                       !- Heating Maximum Air Flow {m3/s}