
OS:Version,
  {4ca38f00-4e76-49e8-a4f0-f6fd6c58f39f}, !- Handle
  3.7.0;                                  !- Version Identifier

OS:BuildingStory,
  {b0b7b276-d6ec-4bb7-9c6c-4a884fb9e9f3}, !- Handle
  Mezzanine Level,                        !- Name
  ,                                       !- Nominal Z Coordinate {m}
  ,                                       !- Nominal Floor to Floor Height {m}
  ,                                       !- Default Construction Set Name
  ,                                       !- Default Schedule Set Name
  ;                                       !- Group Rendering Name

OS:Material:NoMass,
  {b3f05914-841a-450d-b678-be1a8570748b}, !- Handle
  Material No Mass 1,                     !- Name
  Rough,                                  !- Roughness
  0.36,                                   !- Thermal Resistance {m2-K/W}
  0.9,                                    !- Thermal Absorptance
  0.7,                                    !- Solar Absorptance
  0.7;                                    !- Visible Absorptance

OS:Material,
  {bd0a2a16-435d-48b2-93b5-987ae9193dfb}, !- Handle
  Material 1,                             !- Name
  Smooth,                                 !- Roughness
  0.009,                                  !- Thickness {m}
  0.58,                                   !- Conductivity {W/m-K}
  1900,                                   !- Density {kg/m3}
  1400;                                   !- Specific Heat {J/kg-K}

OS:Construction,
  {2257109b-fa52-4344-a94b-ed11a9f26ce7}, !- Handle
  wall_construction,                      !- Name
  ,                                       !- Surface Rendering Name
  {b3f05914-841a-450d-b678-be1a8570748b}, !- Layer 1
  {bd0a2a16-435d-48b2-93b5-987ae9193dfb}; !- Layer 2

OS:WindowMaterial:SimpleGlazingSystem,
  {e8923a62-809c-41d8-8374-d89fb3bdf8ca}, !- Handle
  Window Material Simple Glazing System 1, !- Name
  1.4,                                    !- U-Factor {W/m2-K}
  0.62,                                   !- Solar Heat Gain Coefficient
  0.78;                                   !- Visible Transmittance

OS:Construction,
  {b37fa8cb-7580-4bff-81c0-c1f31c944525}, !- Handle
  win_construction,                       !- Name
  ,                                       !- Surface Rendering Name
  {e8923a62-809c-41d8-8374-d89fb3bdf8ca}; !- Layer 1

OS:ThermalZone,
  {3ea707d7-a2bd-49e9-a741-0badc3761819}, !- Handle
  Thermal Zone 1,                         !- Name
  ,                                       !- Multiplier
  ,                                       !- Ceiling Height {m}
  ,                                       !- Volume {m3}
  ,                                       !- Floor Area {m2}
  ,                                       !- Zone Inside Convection Algorithm
  ,                                       !- Zone Outside Convection Algorithm
  ,                                       !- Zone Conditioning Equipment List Name
  {1cef03f1-306d-42f6-b431-9ed41edc1309}, !- Zone Air Inlet Port List
  {8ee959ac-4aeb-4a2f-b6b0-55e1122f41e8}, !- Zone Air Exhaust Port List
  {c4ed0511-176a-4709-9903-7bd0f44edcf7}, !- Zone Air Node Name
  {73861024-67e4-42e9-9b0e-6fb0621fe716}, !- Zone Return Air Port List
  ,                                       !- Primary Daylighting Control Name
  ,                                       !- Fraction of Zone Controlled by Primary Daylighting Control
  ,                                       !- Secondary Daylighting Control Name
  ,                                       !- Fraction of Zone Controlled by Secondary Daylighting Control
  ,                                       !- Illuminance Map Name
  ,                                       !- Group Rendering Name
  {76c955ed-367b-4f28-9adf-a69fc7da835a}, !- Thermostat Name
  No;                                     !- Use Ideal Air Loads

OS:Node,
  {346b2ccf-d7a4-4806-a82f-b03eddc8b0fb}, !- Handle
  Node 1,                                 !- Name
  {c4ed0511-176a-4709-9903-7bd0f44edcf7}, !- Inlet Port
  ;                                       !- Outlet Port

OS:Connection,
  {c4ed0511-176a-4709-9903-7bd0f44edcf7}, !- Handle
  {3ea707d7-a2bd-49e9-a741-0badc3761819}, !- Source Object
  11,                                     !- Outlet Port
  {346b2ccf-d7a4-4806-a82f-b03eddc8b0fb}, !- Target Object
  2;                                      !- Inlet Port

OS:PortList,
  {1cef03f1-306d-42f6-b431-9ed41edc1309}, !- Handle
  {3ea707d7-a2bd-49e9-a741-0badc3761819}; !- HVAC Component

OS:PortList,
  {8ee959ac-4aeb-4a2f-b6b0-55e1122f41e8}, !- Handle
  {3ea707d7-a2bd-49e9-a741-0badc3761819}; !- HVAC Component

OS:PortList,
  {73861024-67e4-42e9-9b0e-6fb0621fe716}, !- Handle
  {3ea707d7-a2bd-49e9-a741-0badc3761819}; !- HVAC Component

OS:Sizing:Zone,
  {dc9b765d-18dc-4179-8e53-dad251e47627}, !- Handle
  {3ea707d7-a2bd-49e9-a741-0badc3761819}, !- Zone or ZoneList Name
  SupplyAirTemperature,                   !- Zone Cooling Design Supply Air Temperature Input Method
  14,                                     !- Zone Cooling Design Supply Air Temperature {C}
  11.11,                                  !- Zone Cooling Design Supply Air Temperature Difference {deltaC}
  SupplyAirTemperature,                   !- Zone Heating Design Supply Air Temperature Input Method
  40,                                     !- Zone Heating Design Supply Air Temperature {C}
  11.11,                                  !- Zone Heating Design Supply Air Temperature Difference {deltaC}
  0.0085,                                 !- Zone Cooling Design Supply Air Humidity Ratio {kg-H2O/kg-air}
  0.008,                                  !- Zone Heating Design Supply Air Humidity Ratio {kg-H2O/kg-air}
  ,                                       !- Zone Heating Sizing Factor
  ,                                       !- Zone Cooling Sizing Factor
  DesignDay,                              !- Cooling Design Air Flow Method
  ,                                       !- Cooling Design Air Flow Rate {m3/s}
  ,                                       !- Cooling Minimum Air Flow per Zone Floor Area {m3/s-m2}
  ,                                       !- Cooling Minimum Air Flow {m3/s}
  ,                                       !- Cooling Minimum Air Flow Fraction
  DesignDay,                              !- Heating Design Air Flow Method
  ,                                       !- Heating Design Air Flow Rate {m3/s}
  ,                                       !- Heating Maximum Air Flow per Zone Floor Area {m3/s-m2}
  ,                                       !- Heating Maximum Air Flow {m3/s}
  ,                                       !- Heating Maximum Air Flow Fraction
  No,                                     !- Account for Dedicated Outdoor Air System
  NeutralSupplyAir,                       !- Dedicated Outdoor Air System Control Strategy
  autosize,                               !- Dedicated Outdoor Air Low Setpoint Temperature for Design {C}
  autosize,                               !- Dedicated Outdoor Air High Setpoint Temperature for Design {C}
  Sensible Load Only No Latent Load,      !- Zone Load Sizing Method
  HumidityRatioDifference,                !- Zone Latent Cooling Design Supply Air Humidity Ratio Input Method
  ,                                       !- Zone Dehumidification Design Supply Air Humidity Ratio {kgWater/kgDryAir}
  0.005,                                  !- Zone Cooling Design Supply Air Humidity Ratio Difference {kgWater/kgDryAir}
  HumidityRatioDifference,                !- Zone Latent Heating Design Supply Air Humidity Ratio Input Method
  ,                                       !- Zone Humidification Design Supply Air Humidity Ratio {kgWater/kgDryAir}
  0.005;                                  !- Zone Humidification Design Supply Air Humidity Ratio Difference {kgWater/kgDryAir}

OS:ZoneHVAC:EquipmentList,
  {c0341cfb-df67-4f02-aa17-3577609f1f2d}, !- Handle
  Zone HVAC Equipment List 1,             !- Name
  {3ea707d7-a2bd-49e9-a741-0badc3761819}; !- Thermal Zone

OS:Space,
  {fed9721e-d48e-4d26-b068-8b752de20738}, !- Handle
  Space,                                  !- Name
  ,                                       !- Space Type Name
  ,                                       !- Default Construction Set Name
  ,                                       !- Default Schedule Set Name
  ,                                       !- Direction of Relative North {deg}
  ,                                       !- X Origin {m}
  ,                                       !- Y Origin {m}
  ,                                       !- Z Origin {m}
  {b0b7b276-d6ec-4bb7-9c6c-4a884fb9e9f3}, !- Building Story Name
  {3ea707d7-a2bd-49e9-a741-0badc3761819}, !- Thermal Zone Name
  ,                                       !- Part of Total Floor Area
  {16132f72-11e1-45bc-b63c-604aba8ae057}, !- Design Specification Outdoor Air Object Name
  ,                                       !- Building Unit Name
  ,                                       !- Volume {m3}
  ,                                       !- Ceiling Height {m}
  Autocalculate;                          !- Floor Area {m2}

OS:Surface,
  {0c250306-0931-4618-8255-905c9ce2f22b}, !- Handle
  Surface 1,                              !- Name
  Wall,                                   !- Surface Type
  {2257109b-fa52-4344-a94b-ed11a9f26ce7}, !- Construction Name
  {fed9721e-d48e-4d26-b068-8b752de20738}, !- Space Name
  Outdoors,                               !- Outside Boundary Condition
  ,                                       !- Outside Boundary Condition Object
  SunExposed,                             !- Sun Exposure
  WindExposed,                            !- Wind Exposure
  ,                                       !- View Factor to Ground
  ,                                       !- Number of Vertices
  0.2, 2.8, 3,                            !- X,Y,Z Vertex 1 {m}
  0.2, 2.8, 0,                            !- X,Y,Z Vertex 2 {m}
  0.2, 0.2, 0,                            !- X,Y,Z Vertex 3 {m}
  0.2, 0.2, 3;                            !- X,Y,Z Vertex 4 {m}

OS:Surface,
  {f7de7df3-3be1-4cbe-b84d-dc4ed30a59f6}, !- Handle
  Surface 2,                              !- Name
  Wall,                                   !- Surface Type
  {2257109b-fa52-4344-a94b-ed11a9f26ce7}, !- Construction Name
  {fed9721e-d48e-4d26-b068-8b752de20738}, !- Space Name
  Outdoors,                               !- Outside Boundary Condition
  ,                                       !- Outside Boundary Condition Object
  SunExposed,                             !- Sun Exposure
  WindExposed,                            !- Wind Exposure
  ,                                       !- View Factor to Ground
  ,                                       !- Number of Vertices
  0.2, 0.2, 3,                            !- X,Y,Z Vertex 1 {m}
  0.2, 0.2, 0,                            !- X,Y,Z Vertex 2 {m}
  3.8, 0.2, 0,                            !- X,Y,Z Vertex 3 {m}
  3.8, 0.2, 3;                            !- X,Y,Z Vertex 4 {m}

OS:SubSurface,
  {7a1f91c9-bd9d-4e38-984b-ec463f6f46c9}, !- Handle
  Sub Surface 1,                          !- Name
  FixedWindow,                            !- Sub Surface Type
  {b37fa8cb-7580-4bff-81c0-c1f31c944525}, !- Construction Name
  {f7de7df3-3be1-4cbe-b84d-dc4ed30a59f6}, !- Surface Name
  ,                                       !- Outside Boundary Condition Object
  ,                                       !- View Factor to Ground
  ,                                       !- Frame and Divider Name
  ,                                       !- Multiplier
  ,                                       !- Number of Vertices
  0.6, 0.2, 1,                            !- X,Y,Z Vertex 1 {m}
  1.6, 0.2, 1,                            !- X,Y,Z Vertex 2 {m}
  1.6, 0.2, 2,                            !- X,Y,Z Vertex 3 {m}
  0.6, 0.2, 2;                            !- X,Y,Z Vertex 4 {m}

OS:Surface,
  {d6c45ec2-a67f-4aae-95da-0530fbbda7e6}, !- Handle
  Surface 3,                              !- Name
  Floor,                                  !- Surface Type
  {2257109b-fa52-4344-a94b-ed11a9f26ce7}, !- Construction Name
  {fed9721e-d48e-4d26-b068-8b752de20738}, !- Space Name
  Ground,                                 !- Outside Boundary Condition
  ,                                       !- Outside Boundary Condition Object
  NoSun,                                  !- Sun Exposure
  NoWind,                                 !- Wind Exposure
  ,                                       !- View Factor to Ground
  ,                                       !- Number of Vertices
  3.8, 0.2, 0,                            !- X,Y,Z Vertex 1 {m}
  0.2, 0.2, 0,                            !- X,Y,Z Vertex 2 {m}
  0.2, 2.8, 0,                            !- X,Y,Z Vertex 3 {m}
  3.8, 2.8, 0;                            !- X,Y,Z Vertex 4 {m}

OS:Surface,
  {47b01a0d-ff92-4436-b712-926c7506850c}, !- Handle
  Surface 4,                              !- Name
  RoofCeiling,                            !- Surface Type
  {2257109b-fa52-4344-a94b-ed11a9f26ce7}, !- Construction Name
  {fed9721e-d48e-4d26-b068-8b752de20738}, !- Space Name
  Outdoors,                               !- Outside Boundary Condition
  ,                                       !- Outside Boundary Condition Object
  SunExposed,                             !- Sun Exposure
  WindExposed,                            !- Wind Exposure
  ,                                       !- View Factor to Ground
  ,                                       !- Number of Vertices
  0.2, 0.2, 3,                            !- X,Y,Z Vertex 1 {m}
  3.8, 0.2, 3,                            !- X,Y,Z Vertex 2 {m}
  3.8, 2.8, 3,                            !- X,Y,Z Vertex 3 {m}
  0.2, 2.8, 3;                            !- X,Y,Z Vertex 4 {m}

OS:Surface,
  {280f7d4d-a8df-4f13-b52c-5df8ab4bd4b7}, !- Handle
  Surface 5,                              !- Name
  Wall,                                   !- Surface Type
  {2257109b-fa52-4344-a94b-ed11a9f26ce7}, !- Construction Name
  {fed9721e-d48e-4d26-b068-8b752de20738}, !- Space Name
  Outdoors,                               !- Outside Boundary Condition
  ,                                       !- Outside Boundary Condition Object
  SunExposed,                             !- Sun Exposure
  WindExposed,                            !- Wind Exposure
  ,                                       !- View Factor to Ground
  ,                                       !- Number of Vertices
  3.8, 2.8, 3,                            !- X,Y,Z Vertex 1 {m}
  3.8, 2.8, 0,                            !- X,Y,Z Vertex 2 {m}
  0.2, 2.8, 0,                            !- X,Y,Z Vertex 3 {m}
  0.2, 2.8, 3;                            !- X,Y,Z Vertex 4 {m}

OS:Surface,
  {75388864-d6b9-44f8-ab6e-f77a8e6e42b4}, !- Handle
  Surface 6,                              !- Name
  Wall,                                   !- Surface Type
  {2257109b-fa52-4344-a94b-ed11a9f26ce7}, !- Construction Name
  {fed9721e-d48e-4d26-b068-8b752de20738}, !- Space Name
  Outdoors,                               !- Outside Boundary Condition
  ,                                       !- Outside Boundary Condition Object
  SunExposed,                             !- Sun Exposure
  WindExposed,                            !- Wind Exposure
  ,                                       !- View Factor to Ground
  ,                                       !- Number of Vertices
  3.8, 0.2, 3,                            !- X,Y,Z Vertex 1 {m}
  3.8, 0.2, 0,                            !- X,Y,Z Vertex 2 {m}
  3.8, 2.8, 0,                            !- X,Y,Z Vertex 3 {m}
  3.8, 2.8, 3;                            !- X,Y,Z Vertex 4 {m}

OS:ShadingSurfaceGroup,
  {9a58fe15-dc14-497f-aa98-49c96d8fc1a5}, !- Handle
  Shading Surface Group 1,                !- Name
  Building;                               !- Shading Surface Type

OS:ScheduleTypeLimits,
  {26ecebe5-a56e-491e-a6a6-8c0bb825a341}, !- Handle
  fractional,                             !- Name
  0,                                      !- Lower Limit Value
  1,                                      !- Upper Limit Value
  Continuous;                             !- Numeric Type

OS:ScheduleTypeLimits,
  {edc171ec-5c89-4a8b-b6d2-2c7a1f0830a2}, !- Handle
  temperature,                            !- Name
  -60,                                    !- Lower Limit Value
  200,                                    !- Upper Limit Value
  Continuous,                             !- Numeric Type
  Temperature;                            !- Unit Type

OS:ScheduleTypeLimits,
  {74316bf5-111b-4a81-948a-9e80ab137f19}, !- Handle
  activity,                               !- Name
  0,                                      !- Lower Limit Value
  ,                                       !- Upper Limit Value
  Continuous,                             !- Numeric Type
  ActivityLevel;                          !- Unit Type

OS:Schedule:Day,
  {ed23df7e-445f-440c-a928-3d545b48efee}, !- Handle
  weekday occupancy,                      !- Name
  {26ecebe5-a56e-491e-a6a6-8c0bb825a341}, !- Schedule Type Limits Name
  ,                                       !- Interpolate to Timestep
  9,                                      !- Hour 1
  0,                                      !- Minute 1
  0,                                      !- Value Until Time 1
  17,                                     !- Hour 2
  0,                                      !- Minute 2
  1,                                      !- Value Until Time 2
  24,                                     !- Hour 3
  0,                                      !- Minute 3
  0;                                      !- Value Until Time 3

OS:Schedule:Ruleset,
  {88c539f6-8904-4650-ac67-ab8db9f1c98f}, !- Handle
  occupancy schedule,                     !- Name
  {26ecebe5-a56e-491e-a6a6-8c0bb825a341}, !- Schedule Type Limits Name
  {cf795ce1-179b-4b85-aaf6-92f5a8dd0ebc}; !- Default Day Schedule Name

OS:Schedule:Day,
  {cf795ce1-179b-4b85-aaf6-92f5a8dd0ebc}, !- Handle
  Schedule Day 1,                         !- Name
  {26ecebe5-a56e-491e-a6a6-8c0bb825a341}, !- Schedule Type Limits Name
  ,                                       !- Interpolate to Timestep
  24,                                     !- Hour 1
  0,                                      !- Minute 1
  0;                                      !- Value Until Time 1

OS:Schedule:Rule,
  {9df242a0-6648-4173-ad70-25b4c720f4ee}, !- Handle
  occupancy weekdays,                     !- Name
  {88c539f6-8904-4650-ac67-ab8db9f1c98f}, !- Schedule Ruleset Name
  0,                                      !- Rule Order
  {62cb661b-2065-42e5-ae8f-9ed62860fcdb}, !- Day Schedule Name
  ,                                       !- Apply Sunday
  Yes,                                    !- Apply Monday
  Yes,                                    !- Apply Tuesday
  Yes,                                    !- Apply Wednesday
  Yes,                                    !- Apply Thursday
  Yes;                                    !- Apply Friday

OS:Schedule:Day,
  {62cb661b-2065-42e5-ae8f-9ed62860fcdb}, !- Handle
  weekday occupancy 1,                    !- Name
  {26ecebe5-a56e-491e-a6a6-8c0bb825a341}, !- Schedule Type Limits Name
  ,                                       !- Interpolate to Timestep
  9,                                      !- Hour 1
  0,                                      !- Minute 1
  0,                                      !- Value Until Time 1
  17,                                     !- Hour 2
  0,                                      !- Minute 2
  1,                                      !- Value Until Time 2
  24,                                     !- Hour 3
  0,                                      !- Minute 3
  0;                                      !- Value Until Time 3

OS:Schedule:Day,
  {ef2ec16c-5e6f-4c1a-b9a9-3fc760dad830}, !- Handle
  weekday activity,                       !- Name
  {74316bf5-111b-4a81-948a-9e80ab137f19}, !- Schedule Type Limits Name
  ,                                       !- Interpolate to Timestep
  24,                                     !- Hour 1
  0,                                      !- Minute 1
  70;                                     !- Value Until Time 1

OS:Schedule:Ruleset,
  {e07f558d-e482-405e-9804-c2dbabd98172}, !- Handle
  activity schedule,                      !- Name
  {74316bf5-111b-4a81-948a-9e80ab137f19}, !- Schedule Type Limits Name
  {d004db7e-808e-4fcf-8ca8-8a571d3f414c}, !- Default Day Schedule Name
  {df945c18-155f-4ca5-857c-41a726926912}, !- Summer Design Day Schedule Name
  {a3a2a7b8-3f3d-4680-a73c-d474ae497c05}, !- Winter Design Day Schedule Name
  {adb71027-c9f5-4848-96ca-0c984157fcc9}, !- Holiday Schedule Name
  {c68ce90f-5f16-466f-ae5e-4f2b0395d818}, !- Custom Day 1 Schedule Name
  {fe60fbb8-f2d0-4a64-9913-3f7340eb5fdb}; !- Custom Day 2 Schedule Name

OS:Schedule:Day,
  {d004db7e-808e-4fcf-8ca8-8a571d3f414c}, !- Handle
  Schedule Day 2,                         !- Name
  {74316bf5-111b-4a81-948a-9e80ab137f19}, !- Schedule Type Limits Name
  ,                                       !- Interpolate to Timestep
  24,                                     !- Hour 1
  0,                                      !- Minute 1
  0;                                      !- Value Until Time 1

OS:Schedule:Day,
  {df945c18-155f-4ca5-857c-41a726926912}, !- Handle
  weekday activity 1,                     !- Name
  {74316bf5-111b-4a81-948a-9e80ab137f19}, !- Schedule Type Limits Name
  ,                                       !- Interpolate to Timestep
  24,                                     !- Hour 1
  0,                                      !- Minute 1
  70;                                     !- Value Until Time 1

OS:Schedule:Day,
  {a3a2a7b8-3f3d-4680-a73c-d474ae497c05}, !- Handle
  weekday activity 2,                     !- Name
  {74316bf5-111b-4a81-948a-9e80ab137f19}, !- Schedule Type Limits Name
  ,                                       !- Interpolate to Timestep
  24,                                     !- Hour 1
  0,                                      !- Minute 1
  70;                                     !- Value Until Time 1

OS:Schedule:Day,
  {adb71027-c9f5-4848-96ca-0c984157fcc9}, !- Handle
  weekday activity 3,                     !- Name
  {74316bf5-111b-4a81-948a-9e80ab137f19}, !- Schedule Type Limits Name
  ,                                       !- Interpolate to Timestep
  24,                                     !- Hour 1
  0,                                      !- Minute 1
  70;                                     !- Value Until Time 1

OS:Schedule:Day,
  {c68ce90f-5f16-466f-ae5e-4f2b0395d818}, !- Handle
  weekday activity 4,                     !- Name
  {74316bf5-111b-4a81-948a-9e80ab137f19}, !- Schedule Type Limits Name
  ,                                       !- Interpolate to Timestep
  24,                                     !- Hour 1
  0,                                      !- Minute 1
  70;                                     !- Value Until Time 1

OS:Schedule:Day,
  {fe60fbb8-f2d0-4a64-9913-3f7340eb5fdb}, !- Handle
  weekday activity 5,                     !- Name
  {74316bf5-111b-4a81-948a-9e80ab137f19}, !- Schedule Type Limits Name
  ,                                       !- Interpolate to Timestep
  24,                                     !- Hour 1
  0,                                      !- Minute 1
  70;                                     !- Value Until Time 1

OS:Schedule:Rule,
  {f6cb10cd-0261-48e1-9dea-afe84d141aef}, !- Handle
  activity weekdays,                      !- Name
  {e07f558d-e482-405e-9804-c2dbabd98172}, !- Schedule Ruleset Name
  0,                                      !- Rule Order
  {be590cb7-c3e6-41c4-9fdd-f19b24b4efc4}, !- Day Schedule Name
  Yes,                                    !- Apply Sunday
  Yes,                                    !- Apply Monday
  Yes,                                    !- Apply Tuesday
  Yes,                                    !- Apply Wednesday
  Yes,                                    !- Apply Thursday
  Yes,                                    !- Apply Friday
  Yes;                                    !- Apply Saturday

OS:Schedule:Day,
  {be590cb7-c3e6-41c4-9fdd-f19b24b4efc4}, !- Handle
  weekday activity 6,                     !- Name
  {74316bf5-111b-4a81-948a-9e80ab137f19}, !- Schedule Type Limits Name
  ,                                       !- Interpolate to Timestep
  24,                                     !- Hour 1
  0,                                      !- Minute 1
  70;                                     !- Value Until Time 1

OS:Schedule:Day,
  {436ba6fd-8eda-4f0b-a8e4-b167d82c7ccd}, !- Handle
  thermostat cooling weekday schedule,    !- Name
  {edc171ec-5c89-4a8b-b6d2-2c7a1f0830a2}, !- Schedule Type Limits Name
  ,                                       !- Interpolate to Timestep
  9,                                      !- Hour 1
  0,                                      !- Minute 1
  60,                                     !- Value Until Time 1
  17,                                     !- Hour 2
  0,                                      !- Minute 2
  25,                                     !- Value Until Time 2
  24,                                     !- Hour 3
  0,                                      !- Minute 3
  60;                                     !- Value Until Time 3

OS:Schedule:Day,
  {85c62eed-b723-42f7-858f-ebc3355a1689}, !- Handle
  thermostat cooling weekends schedule,   !- Name
  {edc171ec-5c89-4a8b-b6d2-2c7a1f0830a2}, !- Schedule Type Limits Name
  ,                                       !- Interpolate to Timestep
  24,                                     !- Hour 1
  0,                                      !- Minute 1
  60;                                     !- Value Until Time 1

OS:Schedule:Day,
  {f83f330d-a610-40b5-bb71-eeda3fe52453}, !- Handle
  thermostat cooling design day schedule, !- Name
  {edc171ec-5c89-4a8b-b6d2-2c7a1f0830a2}, !- Schedule Type Limits Name
  ,                                       !- Interpolate to Timestep
  9,                                      !- Hour 1
  0,                                      !- Minute 1
  25,                                     !- Value Until Time 1
  17,                                     !- Hour 2
  0,                                      !- Minute 2
  25,                                     !- Value Until Time 2
  24,                                     !- Hour 3
  0,                                      !- Minute 3
  25;                                     !- Value Until Time 3

OS:Schedule:Ruleset,
  {cbeffc84-3c48-490f-967e-939707489398}, !- Handle
  thermostat cooling ruleset,             !- Name
  {edc171ec-5c89-4a8b-b6d2-2c7a1f0830a2}, !- Schedule Type Limits Name
  {1789cefc-8942-4633-90d4-c7afbf06b77c}, !- Default Day Schedule Name
  {6aca6556-0aee-46ce-963d-7badd44d1a22}, !- Summer Design Day Schedule Name
  {e347cbd0-52c2-4da8-b501-0f46b8170fd0}; !- Winter Design Day Schedule Name

OS:Schedule:Day,
  {1789cefc-8942-4633-90d4-c7afbf06b77c}, !- Handle
  Schedule Day 3,                         !- Name
  {edc171ec-5c89-4a8b-b6d2-2c7a1f0830a2}, !- Schedule Type Limits Name
  ,                                       !- Interpolate to Timestep
  24,                                     !- Hour 1
  0,                                      !- Minute 1
  0;                                      !- Value Until Time 1

OS:Schedule:Day,
  {6aca6556-0aee-46ce-963d-7badd44d1a22}, !- Handle
  thermostat cooling design day schedule 1, !- Name
  {edc171ec-5c89-4a8b-b6d2-2c7a1f0830a2}, !- Schedule Type Limits Name
  ,                                       !- Interpolate to Timestep
  9,                                      !- Hour 1
  0,                                      !- Minute 1
  25,                                     !- Value Until Time 1
  17,                                     !- Hour 2
  0,                                      !- Minute 2
  25,                                     !- Value Until Time 2
  24,                                     !- Hour 3
  0,                                      !- Minute 3
  25;                                     !- Value Until Time 3

OS:Schedule:Rule,
  {7830bd40-5387-4386-9301-7906b9217095}, !- Handle
  thermostat cooling weekday rule,        !- Name
  {cbeffc84-3c48-490f-967e-939707489398}, !- Schedule Ruleset Name
  1,                                      !- Rule Order
  {5f0a9ddd-90e0-4380-b0d2-b44b83725600}, !- Day Schedule Name
  ,                                       !- Apply Sunday
  Yes,                                    !- Apply Monday
  Yes,                                    !- Apply Tuesday
  Yes,                                    !- Apply Wednesday
  Yes,                                    !- Apply Thursday
  Yes;                                    !- Apply Friday

OS:Schedule:Day,
  {5f0a9ddd-90e0-4380-b0d2-b44b83725600}, !- Handle
  thermostat cooling weekday schedule 1,  !- Name
  {edc171ec-5c89-4a8b-b6d2-2c7a1f0830a2}, !- Schedule Type Limits Name
  ,                                       !- Interpolate to Timestep
  9,                                      !- Hour 1
  0,                                      !- Minute 1
  60,                                     !- Value Until Time 1
  17,                                     !- Hour 2
  0,                                      !- Minute 2
  25,                                     !- Value Until Time 2
  24,                                     !- Hour 3
  0,                                      !- Minute 3
  60;                                     !- Value Until Time 3

OS:Schedule:Rule,
  {4e3e393a-b822-4856-87be-6ee880d034e4}, !- Handle
  thermostat cooling weekend rule,        !- Name
  {cbeffc84-3c48-490f-967e-939707489398}, !- Schedule Ruleset Name
  0,                                      !- Rule Order
  {c3bc69c4-7566-40d1-b841-7d15ab6c764d}, !- Day Schedule Name