
OS:Version,
  {707b56a9-51e3-49ad-827d-0f61f298092f}, !- Handle
  3.7.0;                                  !- Version Identifier

OS:BuildingStory,
  {16472a3d-c89b-4a16-b0c5-ba13ebe557d8}, !- Handle
  Mezzanine Level,                        !- Name
  ,                                       !- Nominal Z Coordinate {m}
  ,                                       !- Nominal Floor to Floor Height {m}
  ,                                       !- Default Construction Set Name
  ,                                       !- Default Schedule Set Name
  ;                                       !- Group Rendering Name

OS:Material:NoMass,
  {c02e6e3c-d2aa-4e2f-823c-58297d1d72b9}, !- Handle
  Material No Mass 1,                     !- Name
  Rough,                                  !- Roughness
  0.36,                                   !- Thermal Resistance {m2-K/W}
  0.9,                                    !- Thermal Absorptance
  0.7,                                    !- Solar Absorptance
  0.7;                                    !- Visible Absorptance

OS:Material,
  {00e61f5e-f90a-4bdb-8703-f8aff6cd6bae}, !- Handle
  Material 1,                             !- Name
  Smooth,                                 !- Roughness
  0.009,                                  !- Thickness {m}
  0.58,                                   !- Conductivity {W/m-K}
  1900,                                   !- Density {kg/m3}
  1400;                                   !- Specific Heat {J/kg-K}

OS:Construction,
  {bab2fd3c-a701-4613-9456-110bf288ed24}, !- Handle
  wall_construction,                      !- Name
  ,                                       !- Surface Rendering Name
  {c02e6e3c-d2aa-4e2f-823c-58297d1d72b9}, !- Layer 1
  {00e61f5e-f90a-4bdb-8703-f8aff6cd6bae}; !- Layer 2

OS:WindowMaterial:SimpleGlazingSystem,
  {ec5e9328-2c6c-4430-a622-1ebeb5f998a9}, !- Handle
  Window Material Simple Glazing System 1, !- Name
  1.4,                                    !- U-Factor {W/m2-K}
  0.62,                                   !- Solar Heat Gain Coefficient
  0.78;                                   !- Visible Transmittance

OS:Construction,
  {3ccc61c7-889c-4650-ae36-caf3eb66e07c}, !- Handle
  win_construction,                       !- Name
  ,                                       !- Surface Rendering Name
  {ec5e9328-2c6c-4430-a622-1ebeb5f998a9}; !- Layer 1

OS:ThermalZone,
  {fbf3588a-1c1b-4b4f-8df5-4146df60b296}, !- Handle
  Thermal Zone 1,                         !- Name
  ,                                       !- Multiplier
  ,                                       !- Ceiling Height {m}
  ,                                       !- Volume {m3}
  ,                                       !- Floor Area {m2}
  ,                                       !- Zone Inside Convection Algorithm
  ,                                       !- Zone Outside Convection Algorithm
  ,                                       !- Zone Conditioning Equipment List Name
  {537822d9-d40a-4f2d-a37d-b9474a101065}, !- Zone Air Inlet Port List
  {d39f440c-f288-4264-a015-a2ff3dfd9099}, !- Zone Air Exhaust Port List
  {c703f9a3-95f5-4b04-920e-446f46c2c049}, !- Zone Air Node Name
  {486a7811-0a2c-4366-89a8-c5faa9774970}, !- Zone Return Air Port List
  ,                                       !- Primary Daylighting Control Name
  ,                                       !- Fraction of Zone Controlled by Primary Daylighting Control
  ,                                       !- Secondary Daylighting Control Name
  ,                                       !- Fraction of Zone Controlled by Secondary Daylighting Control
  ,                                       !- Illuminance Map Name
  ,                                       !- Group Rendering Name
  {50c7a11a-a2d0-49ce-b188-cf3c10e8d190}, !- Thermostat Name
  No;                                     !- Use Ideal Air Loads

OS:Node,
  {6a8eb1cd-096d-483c-b021-dbb3b1dd7cdb}, !- Handle
  Node 1,                                 !- Name
  {c703f9a3-95f5-4b04-920e-446f46c2c049}, !- Inlet Port
  ;                                       !- Outlet Port

OS:Connection,
  {c703f9a3-95f5-4b04-920e-446f46c2c049}, !- Handle
  {fbf3588a-1c1b-4b4f-8df5-4146df60b296}, !- Source Object
  11,                                     !- Outlet Port
  {6a8eb1cd-096d-483c-b021-dbb3b1dd7cdb}, !- Target Object
  2;                                      !- Inlet Port

OS:PortList,
  {537822d9-d40a-4f2d-a37d-b9474a101065}, !- Handle
  {fbf3588a-1c1b-4b4f-8df5-4146df60b296}, !- HVAC Component
  {3436d8ea-959e-4c7f-a334-71a0ae079200}; !- Port 1

OS:PortList,
  {d39f440c-f288-4264-a015-a2ff3dfd9099}, !- Handle
  {fbf3588a-1c1b-4b4f-8df5-4146df60b296}, !- HVAC Component
  {310d7ec3-e294-4b3b-a092-802bd33f9fb7}; !- Port 1

OS:PortList,
  {486a7811-0a2c-4366-89a8-c5faa9774970}, !- Handle
  {fbf3588a-1c1b-4b4f-8df5-4146df60b296}; !- HVAC Component

OS:Sizing:Zone,
  {9d0a2e17-0670-4e05-838c-6b5bdfbb2d52}, !- Handle
  {fbf3588a-1c1b-4b4f-8df5-4146df60b296}, !- Zone or ZoneList Name
  SupplyAirTemperature,                   !- Zone Cooling Design Supply Air Temperature Input Method
  13.8888888888889,                       !- Zone Cooling Design Supply Air Temperature {C}
  11.11,                                  !- Zone Cooling Design Supply Air Temperature Difference {deltaC}
  SupplyAirTemperature,                   !- Zone Heating Design Supply Air Temperature Input Method
  50.0000000000001,                       !- Zone Heating Design Supply Air Temperature {C}
  11.11,                                  !- Zone Heating Design Supply Air Temperature Difference {deltaC}
  0.008,                                  !- Zone Cooling Design Supply Air Humidity Ratio {kg-H2O/kg-air}
  0.008,                                  !- Zone Heating Design Supply Air Humidity Ratio {kg-H2O/kg-air}
  ,                                       !- Zone Heating Sizing Factor
  ,                                       !- Zone Cooling Sizing Factor
  DesignDay,                              !- Cooling Design Air Flow Method
  ,                                       !- Cooling Design Air Flow Rate {m3/s}
  ,                                       !- Cooling Minimum Air Flow per Zone Floor Area {m3/s-m2}
  ,                                       !- Cooling Minimum Air Flow {m3/s}
  ,                                       !- Cooling Minimum Air Flow Fraction
  DesignDay,                              !- Heating Design Air Flow Method
  ,                                       !- Heating Design Air Flow Rate {m3/s}
  ,                                       !- Heating Maximum Air Flow per Zone Floor Area {m3/s-m2}
  ,                                       !- Heating Maximum Air Flow {m3/s}
  ,                                       !- Heating Maximum Air Flow Fraction
  No,                                     !- Account for Dedicated Outdoor Air System
  NeutralSupplyAir,                       !- Dedicated Outdoor Air System Control Strategy
  autosize,                               !- Dedicated Outdoor Air Low Setpoint Temperature for Design {C}
  autosize,                               !- Dedicated Outdoor Air High Setpoint Temperature for Design {C}
  Sensible Load Only No Latent Load,      !- Zone Load Sizing Method
  HumidityRatioDifference,                !- Zone Latent Cooling Design Supply Air Humidity Ratio Input Method
  ,                                       !- Zone Dehumidification Design Supply Air Humidity Ratio {kgWater/kgDryAir}
  0.005,                                  !- Zone Cooling Design Supply Air Humidity Ratio Difference {kgWater/kgDryAir}
  HumidityRatioDifference,                !- Zone Latent Heating Design Supply Air Humidity Ratio Input Method
  ,                                       !- Zone Humidification Design Supply Air Humidity Ratio {kgWater/kgDryAir}
  0.005;                                  !- Zone Humidification Design Supply Air Humidity Ratio Difference {kgWater/kgDryAir}

OS:ZoneHVAC:EquipmentList,
  {48d129e2-9459-4fa6-b5c0-38a91e8d851b}, !- Handle
  Zone HVAC Equipment List 1,             !- Name
  {fbf3588a-1c1b-4b4f-8df5-4146df60b296}, !- Thermal Zone
  ,                                       !- Load Distribution Scheme
  {05e6a911-ce17-462c-9f42-d951e390707f}, !- Zone Equipment 1
  1,                                      !- Zone Equipment Cooling Sequence 1
  1,                                      !- Zone Equipment Heating or No-Load Sequence 1
  ,                                       !- Zone Equipment Sequential Cooling Fraction Schedule Name 1
  ;                                       !- Zone Equipment Sequential Heating Fraction Schedule Name 1

OS:Space,
  {6232a453-3290-42b6-b5c6-d3deb400a520}, !- Handle
  Space,                                  !- Name
  ,                                       !- Space Type Name
  ,                                       !- Default Construction Set Name
  ,                                       !- Default Schedule Set Name
  ,                                       !- Direction of Relative North {deg}
  ,                                       !- X Origin {m}
  ,                                       !- Y Origin {m}
  ,                                       !- Z Origin {m}
  {16472a3d-c89b-4a16-b0c5-ba13ebe557d8}, !- Building Story Name
  {fbf3588a-1c1b-4b4f-8df5-4146df60b296}, !- Thermal Zone Name
  ,                                       !- Part of Total Floor Area
  {2a205164-7101-4333-a46a-0f6c981d2b5b}, !- Design Specification Outdoor Air Object Name
  ,                                       !- Building Unit Name
  ,                                       !- Volume {m3}
  ,                                       !- Ceiling Height {m}
  Autocalculate;                          !- Floor Area {m2}

OS:Surface,
  {1178925d-b915-4880-af9e-5d40af58e58c}, !- Handle
  Surface 1,                              !- Name
  Wall,                                   !- Surface Type
  {bab2fd3c-a701-4613-9456-110bf288ed24}, !- Construction Name
  {6232a453-3290-42b6-b5c6-d3deb400a520}, !- Space Name
  Outdoors,                               !- Outside Boundary Condition
  ,                                       !- Outside Boundary Condition Object
  SunExposed,                             !- Sun Exposure
  WindExposed,                            !- Wind Exposure
  ,                                       !- View Factor to Ground
  ,                                       !- Number of Vertices
  0.2, 2.8, 3,                            !- X,Y,Z Vertex 1 {m}
  0.2, 2.8, 0,                            !- X,Y,Z Vertex 2 {m}
  0.2, 0.2, 0,                            !- X,Y,Z Vertex 3 {m}
  0.2, 0.2, 3;                            !- X,Y,Z Vertex 4 {m}

OS:Surface,
  {efee8f8e-4015-46d9-a45b-b8fbf77d4f20}, !- Handle
  Surface 2,                              !- Name
  Wall,                                   !- Surface Type
  {bab2fd3c-a701-4613-9456-110bf288ed24}, !- Construction Name
  {6232a453-3290-42b6-b5c6-d3deb400a520}, !- Space Name
  Outdoors,                               !- Outside Boundary Condition
  ,                                       !- Outside Boundary Condition Object
  SunExposed,                             !- Sun Exposure
  WindExposed,                            !- Wind Exposure
  ,                                       !- View Factor to Ground
  ,                                       !- Number of Vertices
  0.2, 0.2, 3,                            !- X,Y,Z Vertex 1 {m}
  0.2, 0.2, 0,                            !- X,Y,Z Vertex 2 {m}
  3.8, 0.2, 0,                            !- X,Y,Z Vertex 3 {m}
  3.8, 0.2, 3;                            !- X,Y,Z Vertex 4 {m}

OS:SubSurface,
  {a2083719-bbf8-4099-9066-5aa5e34f6220}, !- Handle
  Sub Surface 1,                          !- Name
  FixedWindow,                            !- Sub Surface Type
  {3ccc61c7-889c-4650-ae36-caf3eb66e07c}, !- Construction Name
  {efee8f8e-4015-46d9-a45b-b8fbf77d4f20}, !- Surface Name
  ,                                       !- Outside Boundary Condition Object
  ,                                       !- View Factor to Ground
  ,                                       !- Frame and Divider Name
  ,                                       !- Multiplier
  ,                                       !- Number of Vertices
  0.6, 0.2, 1,                            !- X,Y,Z Vertex 1 {m}
  1.6, 0.2, 1,                            !- X,Y,Z Vertex 2 {m}
  1.6, 0.2, 2,                            !- X,Y,Z Vertex 3 {m}
  0.6, 0.2, 2;                            !- X,Y,Z Vertex 4 {m}

OS:Surface,
  {c07d1d3a-d37a-4d66-9d79-51b6ac940ba0}, !- Handle
  Surface 3,                              !- Name
  Floor,                                  !- Surface Type
  {bab2fd3c-a701-4613-9456-110bf288ed24}, !- Construction Name
  {6232a453-3290-42b6-b5c6-d3deb400a520}, !- Space Name
  Ground,                                 !- Outside Boundary Condition
  ,                                       !- Outside Boundary Condition Object
  NoSun,                                  !- Sun Exposure
  NoWind,                                 !- Wind Exposure
  ,                                       !- View Factor to Ground
  ,                                       !- Number of Vertices
  3.8, 0.2, 0,                            !- X,Y,Z Vertex 1 {m}
  0.2, 0.2, 0,                            !- X,Y,Z Vertex 2 {m}
  0.2, 2.8, 0,                            !- X,Y,Z Vertex 3 {m}
  3.8, 2.8, 0;                            !- X,Y,Z Vertex 4 {m}

OS:Surface,
  {1912da48-2c3f-4644-a120-6fa56430d88c}, !- Handle
  Surface 4,                              !- Name
  RoofCeiling,                            !- Surface Type
  {bab2fd3c-a701-4613-9456-110bf288ed24}, !- Construction Name
  {6232a453-3290-42b6-b5c6-d3deb400a520}, !- Space Name
  Outdoors,                               !- Outside Boundary Condition
  ,                                       !- Outside Boundary Condition Object
  SunExposed,                             !- Sun Exposure
  WindExposed,                            !- Wind Exposure
  ,                                       !- View Factor to Ground
  ,                                       !- Number of Vertices
  0.2, 0.2, 3,                            !- X,Y,Z Vertex 1 {m}
  3.8, 0.2, 3,                            !- X,Y,Z Vertex 2 {m}
  3.8, 2.8, 3,                            !- X,Y,Z Vertex 3 {m}
  0.2, 2.8, 3;                            !- X,Y,Z Vertex 4 {m}

OS:Surface,
  {194c4530-197b-487f-857b-a9ebac2cc1bf}, !- Handle
  Surface 5,                              !- Name
  Wall,                                   !- Surface Type
  {bab2fd3c-a701-4613-9456-110bf288ed24}, !- Construction Name
  {6232a453-3290-42b6-b5c6-d3deb400a520}, !- Space Name
  Outdoors,                               !- Outside Boundary Condition
  ,                                       !- Outside Boundary Condition Object
  SunExposed,                             !- Sun Exposure
  WindExposed,                            !- Wind Exposure
  ,                                       !- View Factor to Ground
  ,                                       !- Number of Vertices
  3.8, 2.8, 3,                            !- X,Y,Z Vertex 1 {m}
  3.8, 2.8, 0,                            !- X,Y,Z Vertex 2 {m}
  0.2, 2.8, 0,                            !- X,Y,Z Vertex 3 {m}
  0.2, 2.8, 3;                            !- X,Y,Z Vertex 4 {m}

OS:Surface,
  {e82d2b01-37c6-4613-813d-da3a3bad49c2}, !- Handle
  Surface 6,                              !- Name
  Wall,                                   !- Surface Type
  {bab2fd3c-a701-4613-9456-110bf288ed24}, !- Construction Name
  {6232a453-3290-42b6-b5c6-d3deb400a520}, !- Space Name
  Outdoors,                               !- Outside Boundary Condition
  ,                                       !- Outside Boundary Condition Object
  SunExposed,                             !- Sun Exposure
  WindExposed,                            !- Wind Exposure
  ,                                       !- View Factor to Ground
  ,                                       !- Number of Vertices
  3.8, 0.2, 3,                            !- X,Y,Z Vertex 1 {m}
  3.8, 0.2, 0,                            !- X,Y,Z Vertex 2 {m}
  3.8, 2.8, 0,                            !- X,Y,Z Vertex 3 {m}
  3.8, 2.8, 3;                            !- X,Y,Z Vertex 4 {m}

OS:ShadingSurfaceGroup,
  {1e5fc07f-f1b4-47da-ade1-b7a15b0086f5}, !- Handle
  Shading Surface Group 1,                !- Name
  Building;                               !- Shading Surface Type

OS:ScheduleTypeLimits,
  {870a98b1-84ad-4df3-90cf-39770776c6f6}, !- Handle
  fractional,                             !- Name
  0,                                      !- Lower Limit Value
  1,                                      !- Upper Limit Value
  Continuous;                             !- Numeric Type

OS:ScheduleTypeLimits,
  {339b7519-8190-4bce-98c5-4136fa6b57bd}, !- Handle
  temperature,                            !- Name
  -60,                                    !- Lower Limit Value
  200,                                    !- Upper Limit Value
  Continuous,                             !- Numeric Type
  Temperature;                            !- Unit Type

OS:ScheduleTypeLimits,
  {30c649ea-3a1d-4f91-a32f-17a8de3da7fd}, !- Handle
  activity,                               !- Name
  0,                                      !- Lower Limit Value
  ,                                       !- Upper Limit Value
  Continuous,                             !- Numeric Type
  ActivityLevel;                          !- Unit Type

OS:Schedule:Day,
  {a4663c21-0038-4b16-9974-8c6bf6e0b8e6}, !- Handle
  weekday occupancy,                      !- Name
  {870a98b1-84ad-4df3-90cf-39770776c6f6}, !- Schedule Type Limits Name
  ,                                       !- Interpolate to Timestep
  9,                                      !- Hour 1
  0,                                      !- Minute 1
  0,                                      !- Value Until Time 1
  17,                                     !- Hour 2
  0,                                      !- Minute 2
  1,                                      !- Value Until Time 2
  24,                                     !- Hour 3
  0,                                      !- Minute 3
  0;                                      !- Value Until Time 3

OS:Schedule:Ruleset,
  {d662618e-3a88-4fd8-a472-fdae3c077968}, !- Handle
  occupancy schedule,                     !- Name
  {870a98b1-84ad-4df3-90cf-39770776c6f6}, !- Schedule Type Limits Name
  {3211590d-2fc7-4881-b311-19eb9bbc311e}; !- Default Day Schedule Name

OS:Schedule:Day,
  {3211590d-2fc7-4881-b311-19eb9bbc311e}, !- Handle
  Schedule Day 1,                         !- Name
  {870a98b1-84ad-4df3-90cf-39770776c6f6}, !- Schedule Type Limits Name
  ,                                       !- Interpolate to Timestep
  24,                                     !- Hour 1
  0,                                      !- Minute 1
  0;                                      !- Value Until Time 1

OS:Schedule:Rule,
  {addcd92f-c3b4-4804-bb79-02e9f1c91e55}, !- Handle
  occupancy weekdays,                     !- Name
  {d662618e-3a88-4fd8-a472-fdae3c077968}, !- Schedule Ruleset Name
  0,                                      !- Rule Order
  {ea470274-8b07-4170-8cbd-4bfb675c358e}, !- Day Schedule Name
  ,                                       !- Apply Sunday
  Yes,                                    !- Apply Monday
  Yes,                                    !- Apply Tuesday
  Yes,                                    !- Apply Wednesday
  Yes,                                    !- Apply Thursday
  Yes;                                    !- Apply Friday

OS:Schedule:Day,
  {ea470274-8b07-4170-8cbd-4bfb675c358e}, !- Handle
  weekday occupancy 1,                    !- Name
  {870a98b1-84ad-4df3-90cf-39770776c6f6}, !- Schedule Type Limits Name
  ,                                       !- Interpolate to Timestep
  9,                                      !- Hour 1
  0,                                      !- Minute 1
  0,                                      !- Value Until Time 1
  17,                                     !- Hour 2
  0,                                      !- Minute 2
  1,                                      !- Value Until Time 2
  24,                                     !- Hour 3
  0,                                      !- Minute 3
  0;                                      !- Value Until Time 3

OS:Schedule:Day,
  {2e38a595-da40-4946-b392-cdc239eb08cd}, !- Handle
  weekday activity,                       !- Name
  {30c649ea-3a1d-4f91-a32f-17a8de3da7fd}, !- Schedule Type Limits Name
  ,                                       !- Interpolate to Timestep
  24,                                     !- Hour 1
  0,                                      !- Minute 1
  70;                                     !- Value Until Time 1

OS:Schedule:Ruleset,
  {91c15b0a-9312-46d9-899e-0db981160493}, !- Handle
  activity schedule,                      !- Name
  {30c649ea-3a1d-4f91-a32f-17a8de3da7fd}, !- Schedule Type Limits Name
  {b17ee836-bdd2-401e-8e5a-2ac17e433cc2}, !- Default Day Schedule Name
  {bbe4db75-06af-4d5c-b91b-5bbd12c94fc4}, !- Summer Design Day Schedule Name
  {52ba8748-641c-4ae4-a1ed-6dadbeef5196}, !- Winter Design Day Schedule Name
  {beeb1320-ab8e-424e-acba-d65258cf3909}, !- Holiday Schedule Name
  {eb224815-bf1a-4509-b27a-f928ad39ee50}, !- Custom Day 1 Schedule Name
  {9ba34ef7-4fcb-4d6b-b67c-b962cecda63a}; !- Custom Day 2 Schedule Name

OS:Schedule:Day,
  {b17ee836-bdd2-401e-8e5a-2ac17e433cc2}, !- Handle
  Schedule Day 2,                         !- Name
  {30c649ea-3a1d-4f91-a32f-17a8de3da7fd}, !- Schedule Type Limits Name
  ,                                       !- Interpolate to Timestep
  24,                                     !- Hour 1
  0,                                      !- Minute 1
  0;                                      !- Value Until Time 1

OS:Schedule:Day,
  {bbe4db75-06af-4d5c-b91b-5bbd12c94fc4}, !- Handle
  weekday activity 1,                     !- Name
  {30c649ea-3a1d-4f91-a32f-17a8de3da7fd}, !- Schedule Type Limits Name
  ,                                       !- Interpolate to Timestep
  24,                                     !- Hour 1
  0,                                      !- Minute 1
  70;                                     !- Value Until Time 1

OS:Schedule:Day,
  {52ba8748-641c-4ae4-a1ed-6dadbeef5196}, !- Handle
  weekday activity 2,                     !- Name
  {30c649ea-3a1d-4f91-a32f-17a8de3da7fd}, !- Schedule Type Limits Name
  ,                                       !- Interpolate to Timestep
  24,                                     !- Hour 1
  0,                                      !- Minute 1
  70;                                     !- Value Until Time 1

OS:Schedule:Day,
  {beeb1320-ab8e-424e-acba-d65258cf3909}, !- Handle
  weekday activity 3,                     !- Name
  {30c649ea-3a1d-4f91-a32f-17a8de3da7fd}, !- Schedule Type Limits Name
  ,                                       !- Interpolate to Timestep
  24,                                     !- Hour 1
  0,                                      !- Minute 1
  70;                                     !- Value Until Time 1

OS:Schedule:Day,
  {eb224815-bf1a-4509-b27a-f928ad39ee50}, !- Handle
  weekday activity 4,                     !- Name
  {30c649ea-3a1d-4f91-a32f-17a8de3da7fd}, !- Schedule Type Limits Name
  ,                                       !- Interpolate to Timestep
  24,                                     !- Hour 1
  0,                                      !- Minute 1
  70;                                     !- Value Until Time 1

OS:Schedule:Day,
  {9ba34ef7-4fcb-4d6b-b67c-b962cecda63a}, !- Handle
  weekday activity 5,                     !- Name
  {30c649ea-3a1d-4f91-a32f-17a8de3da7fd}, !- Schedule Type Limits Name
  ,                                       !- Interpolate to Timestep
  24,                                     !- Hour 1
  0,                                      !- Minute 1
  70;                                     !- Value Until Time 1

OS:Schedule:Rule,
  {5092b231-7754-4c9d-8a99-9929e79129c8}, !- Handle
  activity weekdays,                      !- Name
  {91c15b0a-9312-46d9-899e-0db981160493}, !- Schedule Ruleset Name
  0,                                      !- Rule Order
  {09ed2d3e-f598-4f74-9d62-fe9bca00f954}, !- Day Schedule Name
  Yes,                                    !- Apply Sunday
  Yes,                                    !- Apply Monday
  Yes,                                    !- Apply Tuesday
  Yes,                                    !- Apply Wednesday
  Yes,                                    !- Apply Thursday
  Yes,                                    !- Apply Friday
  Yes;                                    !- Apply Saturday

OS:Schedule:Day,
  {09ed2d3e-f598-4f74-9d62-fe9bca00f954}, !- Handle
  weekday activity 6,                     !- Name
  {30c649ea-3a1d-4f91-a32f-17a8de3da7fd}, !- Schedule Type Limits Name
  ,                                       !- Interpolate to Timestep
  24,                                     !- Hour 1
  0,                                      !- Minute 1
  70;                                     !- Value Until Time 1

OS:Schedule:Day,
  {bf571016-2e74-4712-bf2e-42221ad8e8e3}, !- Handle
  thermostat cooling weekday schedule,    !- Name
  {339b7519-8190-4bce-98c5-4136fa6b57bd}, !- Schedule Type Limits Name
  ,                                       !- Interpolate to Timestep
  9,                                      !- Hour 1
  0,                                      !- Minute 1
  60,                                     !- Value Until Time 1
  17,                                     !- Hour 2
  0,                                      !- Minute 2
  25,                                     !- Value Until Time 2
  24,                                     !- Hour 3
  0,                                      !- Minute 3
  60;                                     !- Value Until Time 3

OS:Schedule:Day,
  {e352c6ca-25ce-4d4e-96d3-0822b488b33b}, !- Handle
  thermostat cooling weekends schedule,   !- Name
  {339b7519-8190-4bce-98c5-4136fa6b57bd}, !- Schedule Type Limits Name
  ,                                       !- Interpolate to Timestep
  24,                                     !- Hour 1
  0,                                      !- Minute 1
  60;                                     !- Value Until Time 1

OS:Schedule:Day,
  {0bb4326a-1323-48f1-84b2-832537a5ae7f}, !- Handle
  thermostat cooling design day schedule, !- Name
  {339b7519-8190-4bce-98c5-4136fa6b57bd}, !- Schedule Type Limits Name
  ,                                       !- Interpolate to Timestep
  9,                                      !- Hour 1
  0,                                      !- Minute 1
  25,                                     !- Value Until Time 1
  17,                                     !- Hour 2
  0,                                      !- Minute 2
  25,                                     !- Value Until Time 2
  24,                                     !- Hour 3
  0,                                      !- Minute 3
  25;                                     !- Value Until Time 3

OS:Schedule:Ruleset,
  {c17fe7d0-86f6-4fc2-8597-cc125402074e}, !- Handle
  thermostat cooling ruleset,             !- Name
  {339b7519-8190-4bce-98c5-4136fa6b57bd}, !- Schedule Type Limits Name
  {b2d6304b-7a43-4227-9713-3809a8fe30b4}, !- Default Day Schedule Name
  {5e047165-ec45-4015-b980-1c9c9091de2a}, !- Summer Design Day Schedule Name
  {7218a2fe-a1ff-4979-9e5b-3251a8769417}; !- Winter Design Day Schedule Name

OS:Schedule:Day,
  {b2d6304b-7a43-4227-9713-3809a8fe30b4}, !- Handle
  Schedule Day 3,                         !- Name
  {339b7519-8190-4bce-98c5-4136fa6b57bd}, !- Schedule Type Limits Name
  ,                                       !- Interpolate to Timestep
  24,                                     !- Hour 1
  0,                                      !- Minute 1
  0;                                      !- Value Until Time 1

OS:Schedule:Day,
  {5e047165-ec45-4015-b980-1c9c9091de2a}, !- Handle
  thermostat cooling design day schedule 1, !- Name
  {339b7519-8190-4bce-98c5-4136fa6b57bd}, !- Schedule Type Limits Name
  ,                                       !- Interpolate to Timestep
  9,                                      !- Hour 1
  0,                                      !- Minute 1
  25,                                     !- Value Until Time 1
  17,                                     !- Hour 2
  0,                                      !- Minute 2
  25,                                     !- Value Until Time 2
  24,                                     !- Hour 3
  0,                                      !- Minute 3
  25;                                     !- Value Until Time 3

OS:Schedule:Rule,
  {441e030b-6aee-45de-b1dd-38a400a97ceb}, !- Handle
  thermostat cooling weekday rule,        !- Name
  {c17fe7d0-86f6-4fc2-8597-cc125402074e}, !- Schedule Ruleset Name
  1,                                      !- Rule Order
  {4f7568d6-ef4f-4582-b2f1-dcde9a62728f}, !- Day Schedule Name
  ,                                       !- Apply Sunday
  Yes,                                    !- Apply Monday
  Yes,                                    !- Apply Tuesday
  Yes,                                    !- Apply Wednesday
  Yes,                                    !- Apply Thursday
  Yes;                                    !- Apply Friday

OS:Schedule:Day,
  {4f7568d6-ef4f-4582-b2f1-dcde9a62728f}, !- Handle
  thermostat cooling weekday schedule 1,  !- Name
  {339b7519-8190-4bce-98c5-4136fa6b57bd}, !- Schedule Type Limits Name
  ,                                       !- Interpolate to Timestep
  9,                                      !- Hour 1
  0,                                      !- Minute 1
  60,                                     !- Value Until Time 1
  17,                                     !- Hour 2